$pyNastran: version=msc
$pyNastran: punch=False
$pyNastran: encoding=ascii
$pyNastran: nnodes=26
$pyNastran: nelements=25
$EXECUTIVE CONTROL DECK
SOL 103
CEND
$CASE CONTROL DECK
SUBCASE 1 
BEGIN BULK 
PARAM,EXTOUT,DMIGPCH 
$NODES
GRID           1              0.      0.      0.
GRID           2              4.      0.      0.
GRID           3              8.      0.      0.
GRID           4             12.      0.      0.
GRID           5             16.      0.      0.
GRID           6             20.      0.      0.
GRID           7             24.      0.      0.
GRID           8             28.      0.      0.
GRID           9             32.      0.      0.
GRID          10             36.      0.      0.
GRID          11             40.      0.      0.
GRID          12             44.      0.      0.
GRID          13             48.      0.      0.
GRID          14             52.      0.      0.
GRID          15             56.      0.      0.
GRID          16             60.      0.      0.
GRID          17             64.      0.      0.
GRID          18             68.      0.      0.
GRID          19             72.      0.      0.
GRID          20             76.      0.      0.
$ ... 6 like lines cut
$ELEMENTS
CBEAM          1       1       1       2      0.      1.      0.
CBEAM          2       1       2       3      0.      1.      0.
CBEAM          3       1       3       4      0.      1.      0.
CBEAM          4       1       4       5      0.      1.      0.
CBEAM          5       1       5       6      0.      1.      0.
CBEAM          6       1       6       7      0.      1.      0.
CBEAM          7       1       7       8      0.      1.      0.
CBEAM          8       1       8       9      0.      1.      0.
CBEAM          9       1       9      10      0.      1.      0.
CBEAM         10       1      10      11      0.      1.      0.
CBEAM         11       1      11      12      0.      1.      0.
CBEAM         12       1      12      13      0.      1.      0.
CBEAM         13       1      13      14      0.      1.      0.
CBEAM         14       1      14      15      0.      1.      0.
CBEAM         15       1      15      16      0.      1.      0.
CBEAM         16       1      16      17      0.      1.      0.
CBEAM         17       1      17      18      0.      1.      0.
CBEAM         18       1      18      19      0.      1.      0.
CBEAM         19       1      19      20      0.      1.      0.
CBEAM         20       1      20      21      0.      1.      0.
$ ... 5 like lines cut
$PROPERTIES
PBEAM          1       1     20.1.6666671.666667         100000.
+
              1.      1.
$MATERIALS
MAT1           1   2.1+7              .3
$MASSES
CONM2         52       1        76.92308
        6.410256        6.410256                6.410256
CONM2         53       2        76.92308
        6.410256        6.410256                6.410256
CONM2         54       3        76.92308
        6.410256        6.410256                6.410256
CONM2         55       4        76.92308
        6.410256        6.410256                6.410256
CONM2         56       5        76.92308
        6.410256        6.410256                6.410256
CONM2         57       6        76.92308
        6.410256        6.410256                6.410256
CONM2         58       7        76.92308
        6.410256        6.410256                6.410256
CONM2         59       8        76.92308
        6.410256        6.410256                6.410256
CONM2         60       9        76.92308
        6.410256        6.410256                6.410256
CONM2         61      10        76.92308
        6.410256        6.410256                6.410256
CONM2         62      11        76.92308
        6.410256        6.410256                6.410256
CONM2         63      12        76.92308
        6.410256        6.410256                6.410256
CONM2         64      13        76.92308
        6.410256        6.410256                6.410256
CONM2         65      14        76.92308
        6.410256        6.410256                6.410256
CONM2         66      15        76.92308
        6.410256        6.410256                6.410256
CONM2         67      16        76.92308
        6.410256        6.410256                6.410256
CONM2         68      17        76.92308
        6.410256        6.410256                6.410256
CONM2         69      18        76.92308
        6.410256        6.410256                6.410256
CONM2         70      19        76.92308
        6.410256        6.410256                6.410256
CONM2         71      20        76.92308
        6.410256        6.410256                6.410256
$ ... 12 like lines cut
$SPCs
SPCADD         2       2
SPC1           2  123456       1
