$NODES
GRID*           10000001                  3.938289443716           2.793
*         .2307855624531
GRID*           10000002                  4.743204495452        4.161789
*         .1767612998433
GRID*           10000003                  5.548120811299        5.530579
*         .1217427052133
GRID*           10000004                  6.353036899486        6.899368
*          .067163408771
GRID*           10000005                   7.15795327044        8.268158
*        .01263767325886
GRID*           10000006                  7.962868924527        9.636947
*       -.01126041344515
GRID*           10000007                  8.767785907022       11.005737
*       -.03250021831127
GRID*           10000008                  9.572701251994       12.374526
*       -.05309735509601
GRID*           10000009                  10.37761818888       13.743316
*       -.07435467316417
GRID*           10000010                  11.18253396994       15.112105
*       -.09507540430181
GRID*           10000011                  11.98745024271       16.480895
*        -.1157796588868
GRID*           10000012                  12.79236575671       17.849684
*        -.1367461829491
GRID*           10000013                  13.59728203808       19.218474
*        -.1576329016647
GRID*           10000014                  14.40219864049       20.587263
*        -.1784799434345
GRID*           10000015                  15.20711466579       21.956053
*        -.1994088922343
GRID*           10000016                  16.01203088453       23.324842
*        -.2207921694213
GRID*           10000017                  16.81694668529       24.693632
*        -.2414850002889
GRID*           10000018                  17.62186288115       26.062421
*        -.2622984801752
GRID*           10000019                  18.42677938213       27.431211
*        -.2830626299874
GRID*           10000020                  19.23169458893            28.8
*        -.3040172018011
$ ... 2466 like lines cut
$ GRID*           11000025                  3.938289443716              0.
$ *         .2307855624531
GRID*           11000101                  4.444006301092          -2.793
*         .2462956799119
GRID*           11000102                  5.229601161616       -4.161789
*         .1923660457871
GRID*           11000103                  6.015197974515       -5.530579
*         .1376374164478
GRID*           11000104                  6.800793023569       -6.899368
*        .08275500611837
GRID*           11000105                  7.586390018955       -8.268158
*        .02845411539781
GRID*           11000106                  8.371985869452       -9.636947
*       .003462110341239
GRID*           11000107                  9.157581335097      -11.005737
*       -.01787856761816
GRID*           11000108                  9.943177580336      -12.374526
*       -.03977498386377
GRID*           11000109                  10.72877402848      -13.743316
*       -.06132384302711
GRID*           11000110                  11.51436963969      -15.112105
*       -.08307348263327
GRID*           11000111                   12.2999652139      -16.480895
*        -.1045094567349
GRID*           11000112                  13.08556125261      -17.849684
*        -.1257975658177
GRID*           11000113                  13.87115757051      -19.218474
*        -.1472135944644
GRID*           11000114                  14.65675323927      -20.587263
*        -.1691911674031
GRID*           11000115                  15.44234985541      -21.956053
*        -.1909701050278
GRID*           11000116                  16.22794498601      -23.324842
*        -.2124426222612
GRID*           11000117                  17.01354155827      -24.693632
*        -.2343638334334
GRID*           11000118                  17.79913725951      -26.062421
*        -.2557637529215
GRID*           11000119                  18.58473323183      -27.431211
*        -.2772717108884
GRID*           11000120                  19.37032858126           -28.8
*        -.2987900027354
GRID*           11000122                  4.444006301092        -2.09475
*         .2462956799119
GRID*           11000123                  4.444006301092         -1.3965
*         .2462956799119
GRID*           11000124                  4.444006301092         -.69825
*         .2462956799119
$ GRID*           11000125                  4.444006301092              0.
$ *         .2462956799119
GRID*           11000201                  4.949722487089          -2.793
*         .2535724494101
GRID*           11000202                  5.715998903367       -4.161789
*         .1984934009025
GRID*           11000203                  6.482274337593       -5.530579
*         .1448599987408
GRID*           11000204                   7.24855017265       -6.899368
*        .08928966253139
GRID*           11000205                  8.014826029015       -8.268158
*        .03467413157419
GRID*           11000206                  8.781101331652       -9.636947
*        .01046895177343
GRID*           11000207                  9.547377419293      -11.005737
*       -.01173350576245
GRID*           11000208                  10.31365340945      -12.374526
*        -.0340381098668
GRID*           11000209                  11.07992853941      -13.743316
*        -.0557653041681
GRID*           11000210                  11.84620434127      -15.112105
*        -.0777979074633
GRID*           11000211                  12.61248029496      -16.480895
*        -.0993886608152
GRID*           11000212                  13.37875581725      -17.849684
*        -.1209540420082
GRID*           11000213                  14.14503239719      -19.218474
*        -.1427930269647
GRID*           11000214                  14.91130751286      -20.587263
*        -.1649232679626
GRID*           11000215                  15.67758349182      -21.956053
*        -.1873710013402
GRID*           11000216                  16.44385876612      -23.324842
*        -.2093186610055
GRID*           11000217                  17.21013535512      -24.693632
*        -.2313157543113
GRID*           11000218                  17.97641073588      -26.062421
*        -.2526664455282
GRID*           11000219                  18.74268656534      -27.431211
*        -.2745688172512
GRID*           11000220                  19.50896184052           -28.8
*        -.2964198054805
GRID*           11000222                  4.949722487089        -2.09475
*         .2535724494101
GRID*           11000223                  4.949722487089         -1.3965
*         .2535724494101
GRID*           11000224                  4.949722487089         -.69825
*         .2535724494101
$ GRID*           11000225                  4.949722487089              0.
$ *         .2535724494101
GRID*           11000301                  5.455439838607          -2.793
*         .2539501628097
GRID*           11000302                  6.202395419532       -4.161789
*         .1976938096312
GRID*           11000303                  6.949351355878       -5.530579
*         .1438493879775
GRID*           11000304                  7.696306992563       -6.899368
*          .088692816111
GRID*           11000305                  8.443262639037       -8.268158
*        .03342097601981
GRID*           11000306                  9.190217359986       -9.636947
*       .009466240440694
GRID*           11000307                  9.937173489351      -11.005737
*       -.01355225338841
GRID*           11000308                   10.6841286233      -12.374526
*       -.03512805016871
GRID*           11000309                  11.43108489847      -13.743316
*       -.05642345784409
GRID*           11000310                  12.17803983313      -15.112105
*       -.07799034773677
GRID*           11000311                   12.9249961328      -16.480895
*        -.0996864322586
GRID*           11000312                  13.67195101028      -17.849684
*        -.1218636804224
GRID*           11000313                  14.41890695678      -19.218474
*        -.1444242642045
GRID*           11000314                  15.16586244257      -20.587263
*        -.1658750894814
GRID*           11000315                  15.91281880783      -21.956053
*        -.1877224414137
GRID*           11000316                  16.65977323211      -23.324842
*        -.2097068656364
GRID*           11000317                  17.40672910015      -24.693632
*        -.2314617093523
GRID*           11000318                  18.15368487158      -26.062421
*         -.252996280819
GRID*           11000319                   18.9006405139      -27.431211
*        -.2752123494837
GRID*           11000320                  19.64759591193           -28.8
*        -.2967002304597
GRID*           11000322                  5.455439838607        -2.09475
*         .2539501628097
GRID*           11000323                  5.455439838607         -1.3965
*         .2539501628097
GRID*           11000324                  5.455439838607         -.69825
*         .2539501628097
$ GRID*           11000325                  5.455439838607              0.
$ *         .2539501628097
GRID*           11000401                  5.961156866952          -2.793
*         .2468364356301
GRID*           11000402                  6.688791916434       -4.161789
*         .1909381395796
GRID*           11000403                  7.416427998536       -5.530579
*          .135402843157
GRID*           11000404                  8.144062887788       -6.899368
*        .08182809816116
GRID*           11000405                  8.871698997374       -8.268158
*        .02678521125975
GRID*           11000406                  9.599334260552       -9.636947
*       .001058483019267
GRID*           11000407                  10.32696914426      -11.005737
*       -.02115766563283
GRID*           11000408                  11.05460511847      -12.374526
*       -.04182757313292
GRID*           11000409                  11.78224023467      -13.743316
*       -.06362400048276
GRID*           11000410                  12.50987564423      -15.112105
*       -.08471075136107
GRID*           11000411                  13.23751134789      -16.480895
*        -.1078616144079
GRID*           11000412                  13.96514677042      -17.849684
*        -.1285493999131
GRID*           11000413                  14.69278253825      -19.218474
*        -.1505402172202
GRID*           11000414                  15.42041752127      -20.587263
*        -.1714045617333
GRID*           11000415                  16.14805284089      -21.956053
*        -.1922166188865
GRID*           11000416                  16.87568852612      -23.324842
*        -.2136730034904
GRID*           11000417                  17.60332407403      -24.693632
*        -.2354024664988
GRID*           11000418                  18.33095908038      -26.062421
*        -.2568418810113
GRID*           11000419                  19.05859490905      -27.431211
*        -.2786893002747
GRID*           11000420                  19.78623024503           -28.8
*        -.2992057007324
GRID*           11000422                  5.961156866952        -2.09475
*         .2468364356301
GRID*           11000423                  5.961156866952         -1.3965
*         .2468364356301
GRID*           11000424                  5.961156866952         -.69825
*         .2468364356301
$ GRID*           11000425                  5.961156866952              0.
$ *         .2468364356301
GRID*           11000501                  6.466873469788          -2.793
*         .2299298291859
GRID*           11000502                  7.175188218947       -4.161789
*         .1763973583135
GRID*           11000503                  7.883503308766       -5.530579
*         .1213796040809
GRID*           11000504                  8.591818955974       -6.899368
*        .06485030622907
GRID*           11000505                   9.30013408227       -8.268158
*       .005926154312829
GRID*           11000506                   10.0084494431       -9.636947
*       -.01635646991975
GRID*           11000507                  10.71676454218      -11.005737
*       -.03600515571082
GRID*           11000508                  11.42508053178      -12.374526
*       -.05667809426096
GRID*           11000509                  12.13339537837      -13.743316
*       -.07787680177776
GRID*           11000510                  12.84171056637      -15.112105
*       -.09835238777919
GRID*           11000511                  13.55002666782      -16.480895
*        -.1177749644406
GRID*           11000512                  14.25834135257      -17.849684
*        -.1389098480289
GRID*           11000513                  14.96665733228      -19.218474
*        -.1598804393987
GRID*           11000514                  15.67497181104      -20.587263
*        -.1808746711238
GRID*           11000515                  16.38328791501      -21.956053
*        -.2027591637394
GRID*           11000516                  17.09160282539      -23.324842
*         -.222797544089
GRID*           11000517                  17.79991842433      -24.693632
*        -.2444482482359
GRID*           11000518                  18.50823303369      -26.062421
*        -.2641063178803
GRID*           11000519                  19.21654884816      -27.431211
*        -.2845499177126
GRID*           11000520                   19.9248640203           -28.8
*        -.3047493969915
GRID*           11000522                  6.466873469788        -2.09475
*         .2299298291859
GRID*           11000523                  6.466873469788         -1.3965
*         .2299298291859
GRID*           11000524                  6.466873469788         -.69825
*         .2299298291859
$ GRID*           11000525                  6.466873469788              0.
$ *         .2299298291859
GRID*           11000601                  6.972589765855          -2.793
*         .2069604797753
GRID*           11000602                  7.661585084819       -4.161789
*         .1507588012019
GRID*           11000603                  8.350580570828       -5.530579
*        .09401056079324
GRID*           11000604                  9.039575297746       -6.899368
*        .03837722107416
GRID*           11000605                   9.72857032399       -8.268158
*       -.01656947882042
GRID*           11000606                   10.4175653657       -9.636947
*       -.03996816216359
GRID*           11000607                  11.10656091194      -11.005737
*       -.06053254534761
GRID*           11000608                  11.79555571775      -12.374526
*       -.07866295468007
GRID*           11000609                  12.48455096792      -13.743316
*       -.09887889542153
GRID*           11000610                  13.17354524047      -15.112105
*        -.1187690149817
GRID*           11000611                  13.86254155769      -16.480895
*        -.1377249813802
GRID*           11000612                  14.55153594948      -17.849684
*        -.1576822790007
GRID*           11000613                  15.24053180773      -19.218474
*        -.1773982295429
GRID*           11000614                  15.92952600982      -20.587263
*         -.195488096467
GRID*           11000615                  16.61852145655      -21.956053
*        -.2159944991907
GRID*           11000616                  17.30751638788      -23.324842
*        -.2349068490827
GRID*           11000617                  17.99651195067      -24.693632
*        -.2555851307579
GRID*           11000618                  18.68550706592      -26.062421
*         -.273934450661
GRID*           11000619                  19.37450195899      -27.431211
*        -.2943527295188
GRID*           11000620                    20.063496817           -28.8
*        -.3130981859816
GRID*           11000622                  6.972589765855        -2.09475
*         .2069604797753
GRID*           11000623                  6.972589765855         -1.3965
*         .2069604797753
GRID*           11000624                  6.972589765855         -.69825
*         .2069604797753
$ GRID*           11000625                  6.972589765855              0.
$ *         .2069604797753
GRID*           11000701                   7.47830712515          -2.793
*         .1751629526622
GRID*           11000702                  8.147981818124       -4.161789
*         .1193940750029
GRID*           11000703                  8.817656767861       -5.530579
*        .06469399231638
GRID*           11000704                   9.48733186099       -6.899368
*       .007797435272951
GRID*           11000705                  10.15700694088       -8.268158
*        -.0520755913332
GRID*           11000706                  10.82668124728       -9.636947
*       -.07103538014586
GRID*           11000707                  11.49635698803      -11.005737
*       -.08883161444912
GRID*           11000708                  12.16603123885      -12.374526
*        -.1079950019784
GRID*           11000709                  12.83570633487      -13.743316
*        -.1260168732591
GRID*           11000710                   13.5053816755      -15.112105
*        -.1433456474876
GRID*           11000711                  14.17505661768      -16.480895
*        -.1620456556266
GRID*           11000712                  14.84473142636      -17.849684
*        -.1793872812201
GRID*           11000713                  15.51440656935      -19.218474
*        -.1979946325861
GRID*           11000714                  16.18408135272      -20.587263
*         -.215523103432
GRID*           11000715                  16.85375625693      -21.956053
*        -.2343038902055
GRID*           11000716                  17.52343058372      -23.324842
*        -.2521269860479
GRID*           11000717                  18.19310657777      -24.693632
*         -.270473087458
GRID*           11000718                  18.86278081631      -26.062421
*        -.2883859961435
GRID*           11000719                  19.53245646896      -27.431211
*        -.3059514266702
GRID*           11000720                   20.2021314474           -28.8
*        -.3237296598962
GRID*           11000722                   7.47830712515        -2.09475
*         .1751629526622
GRID*           11000723                   7.47830712515         -1.3965
*         .1751629526622
GRID*           11000724                   7.47830712515         -.69825
*         .1751629526622
$ GRID*           11000725                   7.47830712515              0.
$ *         .1751629526622
GRID*           11000801                  7.984024176962          -2.793
*         .1356263192364
GRID*           11000802                  8.634378373641       -4.161789
*        .08093515105269
GRID*           11000803                  9.284733489728       -5.530579
*        .02312363347828
GRID*           11000804                  9.935087746486       -6.899368
*       -.03192062119048
GRID*           11000805                  10.58544286163       -8.268158
*       -.09058388884549
GRID*           11000806                  11.23579772865       -9.636947
*        -.1094881129964
GRID*           11000807                  11.88615299734      -11.005737
*        -.1254803233314
GRID*           11000808                  12.53650734176      -12.374526
*        -.1408564961538
GRID*           11000809                  13.18686225642      -13.743316
*         -.157950550602
GRID*           11000810                  13.83721720179      -15.112105
*        -.1736596952237
GRID*           11000811                  14.48757200302      -16.480895
*        -.1898949541515
GRID*           11000812                  15.13792677904      -17.849684
*        -.2065902361606
GRID*           11000813                  15.78828095226      -19.218474
*        -.2233111890246
GRID*           11000814                  16.43863645172      -20.587263
*        -.2384529910392
GRID*           11000815                  17.08899073396      -21.956053
*        -.2561395980449
GRID*           11000816                  17.73934620235      -23.324842
*        -.2719135936477
GRID*           11000817                  18.38970068372      -24.693632
*        -.2877275925741
GRID*           11000818                  19.04005505702      -26.062421
*        -.3038574507667
GRID*           11000819                  19.69041052548      -27.431211
*        -.3206836444331
GRID*           11000820                  20.34076473274           -28.8
*        -.3363626256076
GRID*           11000822                  7.984024176962        -2.09475
*         .1356263192364
GRID*           11000823                  7.984024176962         -1.3965
*         .1356263192364
GRID*           11000824                  7.984024176962         -.69825
*         .1356263192364
$ GRID*           11000825                  7.984024176962              0.
$ *         .1356263192364
GRID*           11000901                  8.489741037832          -2.793
*        .09245866821982
GRID*           11000902                  9.120775221126       -4.161789
*        .03690500734438
GRID*           11000903                  9.751809876462       -5.530579
*       -.01850141289562
GRID*           11000904                   10.3828446381       -6.899368
*       -.07456759753709
GRID*           11000905                  11.01387921331       -8.268158
*        -.1315699496224
GRID*           11000906                  11.64491344805       -9.636947
*        -.1501507590544
GRID*           11000907                  12.27594831991      -11.005737
*        -.1645177361651
GRID*           11000908                  12.90698280749      -12.374526
*        -.1791652691774
GRID*           11000909                  13.53801790524      -13.743316
*        -.1931063475452
GRID*           11000910                  14.16905193367      -15.112105
*        -.2079043306075
GRID*           11000911                  14.80008684607      -16.480895
*        -.2219654197946
GRID*           11000912                  15.43112118914      -17.849684
*        -.2359650781421
GRID*           11000913                  16.06215633741      -19.218474
*        -.2502650336779
GRID*           11000914                  16.69319044184      -20.587263
*        -.2643605216378
GRID*           11000915                  17.32422550655      -21.956053
*        -.2798283752666
GRID*           11000916                  17.95525963917      -23.324842
*         -.293929693875
GRID*           11000917                  18.58629495802      -24.693632
*        -.3078691266766
GRID*           11000918                  19.21732901046      -26.062421
*        -.3219321783795
GRID*           11000919                  19.84836394486      -27.431211
*        -.3361087366924
GRID*           11000920                  20.47939765543           -28.8
*        -.3504334368456
GRID*           11000922                  8.489741037832        -2.09475
*        .09245866821982
GRID*           11000923                  8.489741037832         -1.3965
*        .09245866821982
GRID*           11000924                  8.489741037832         -.69825
*        .09245866821982
$ GRID*           11000925                  8.489741037832              0.
$ *        .09245866821982
GRID*           11010001                  3.938289201021          -2.793
*        -.4904144232505
GRID*           11010002                  4.743204997011       -4.161789
*        -.4824683182786
GRID*           11010003                  5.548121053969       -5.530579
*        -.4755850832695
GRID*           11010004                  6.353037346555       -6.899368
*        -.4685421920458
GRID*           11010005                  7.157953692637       -8.268158
*        -.4613456273681
GRID*           11010006                  7.962868813832       -9.636947
*        -.4601671600483
GRID*           11010007                  8.767786277875      -11.005737
*        -.4598793294914
GRID*           11010008                  9.572701647635      -12.374526
*        -.4596767040105
GRID*           11010009                  10.37761811629      -13.743316
*        -.4587381696334
GRID*           11010010                  11.18253386054      -15.112105
*        -.4585536273849
GRID*           11010011                  11.98745032437      -16.480895
*        -.4579271887652
GRID*           11010012                  12.79236541185      -17.849684
*        -.4580648341409
GRID*           11010013                  13.59728280381      -19.218474
*        -.4579279379243
GRID*           11010014                  14.40219861747      -20.587263
*        -.4571716328459
GRID*           11010015                  15.20711431125      -21.956053
*        -.4568834623755
GRID*           11010016                  16.01203038058      -23.324842
*        -.4569294240051
GRID*           11010017                  16.81694679214      -24.693632
*        -.4564641346901
GRID*           11010018                  17.62186232321      -26.062421
*        -.4559523010865
GRID*           11010019                  18.42677880391      -27.431211
*        -.4557203501473
GRID*           11010020                  19.23169513414           -28.8
*        -.4555314579789
GRID*           11010022                  3.938289201021        -2.09475
*        -.4904144232505
GRID*           11010023                  3.938289201021         -1.3965
*        -.4904144232505
GRID*           11010024                  3.938289201021         -.69825
*        -.4904144232505
$ GRID*           11010025                  3.938289201021              0.
$ *        -.4904144232505
GRID*           11010101                  4.444005970654          -2.793
*        -.5408287080284
GRID*           11010102                  5.229601743752       -4.161789
*        -.5323139565781
GRID*           11010103                  6.015198042841       -5.530579
*        -.5231213794654
GRID*           11010104                  6.800793662732       -6.899368
*        -.5152757808436
GRID*           11010105                  7.586390157357       -8.268158
*        -.5068739439595
GRID*           11010106                  8.371985253479       -9.636947
*        -.5032740480918
GRID*           11010107                  9.157582327208      -11.005737
*         -.501288969406
GRID*           11010108                  9.943177648161      -12.374526
*        -.4985587799083
GRID*           11010109                  10.72877352294      -13.743316
*        -.4965490847628
GRID*           11010110                  11.51436950003      -15.112105
*        -.4938045919073
GRID*           11010111                  12.29996554354      -16.480895
*        -.4911207808162
GRID*           11010112                   13.0855613493      -17.849684
*        -.4895237443238
GRID*           11010113                  13.87115778421      -19.218474
*        -.4869185137192
GRID*           11010114                  14.65675314622      -20.587263
*        -.4841871216142
GRID*           11010115                  15.44234950641      -21.956053
*         -.481889300326
GRID*           11010116                  16.22794535351      -23.324842
*        -.4796481621487
GRID*           11010117                  17.01354156434      -24.693632
*        -.4774291703878
GRID*           11010118                  17.79913714486      -26.062421
*        -.4747432613354
GRID*           11010119                  18.58473344404      -27.431211
*        -.4726434236161
GRID*           11010120                  19.37032862703           -28.8
*        -.4703787650055
GRID*           11010122                  4.444005970654        -2.09475
*        -.5408287080284
GRID*           11010123                  4.444005970654         -1.3965
*        -.5408287080284
GRID*           11010124                  4.444005970654         -.69825
*        -.5408287080284
$ GRID*           11010125                  4.444005970654              0.
$ *        -.5408287080284
GRID*           11010201                  4.949723401867          -2.793
*        -.5826785075118
GRID*           11010202                  5.715998582749       -4.161789
*        -.5730679062045
GRID*           11010203                  6.482274567549       -5.530579
*        -.5623440412839
GRID*           11010204                  7.248549906534       -6.899368
*        -.5526375150575
GRID*           11010205                  8.014826142804       -8.268158
*          -.54250528773
GRID*           11010206                  8.781101791014       -9.636947
*        -.5382105356148
GRID*           11010207                  9.547377417062      -11.005737
*        -.5345073502803
GRID*           11010208                    10.313652606      -12.374526
*        -.5300382360597
GRID*           11010209                  11.07992908417      -13.743316
*         -.526801076382
GRID*           11010210                   11.8462045809      -15.112105
*        -.5219895984522
GRID*           11010211                  12.61247983586      -16.480895
*        -.5176294497493
GRID*           11010212                  13.37875609553      -17.849684
*        -.5143851371551
GRID*           11010213                  14.14503154033      -19.218474
*        -.5098146939348
GRID*           11010214                  14.91130750875      -20.587263
*        -.5061055662071
GRID*           11010215                  15.67758343644      -21.956053
*        -.5018199998864
GRID*           11010216                  16.44385941826      -23.324842
*        -.4982305404019
GRID*           11010217                  17.21013533461      -24.693632
*         -.493482932999
GRID*           11010218                  17.97641082648      -26.062421
*        -.4899551323577
GRID*           11010219                  18.74268628279      -27.431211
*        -.4862557428312
GRID*           11010220                  19.50896214841           -28.8
*        -.4822802606015
GRID*           11010222                  4.949723401867        -2.09475
*        -.5826785075118
GRID*           11010223                  4.949723401867         -1.3965
*        -.5826785075118
GRID*           11010224                  4.949723401867         -.69825
*        -.5826785075118
$ GRID*           11010225                  4.949723401867              0.
$ *        -.5826785075118
GRID*           11010301                  5.455440481334          -2.793
*        -.6167270183173
GRID*           11010302                  6.202395541475       -4.161789
*        -.6053211974442
GRID*           11010303                  6.949351633981       -5.530579
*        -.5939836836873
GRID*           11010304                  7.696305981722       -6.899368
*        -.5823019170072
GRID*           11010305                  8.443262486986       -8.268158
*        -.5705311501138
GRID*           11010306                  9.190217966709       -9.636947
*        -.5654656173697
GRID*           11010307                  9.937173218364      -11.005737
*         -.560855643643
GRID*           11010308                  10.68412857983      -12.374526
*        -.5546195895069
GRID*           11010309                  11.43108472039      -13.743316
*        -.5499387989361
GRID*           11010310                  12.17804025545      -15.112105
*        -.5439760518455
GRID*           11010311                  12.92499620423      -16.480895
*        -.5388558844558
GRID*           11010312                  13.67195112769      -17.849684
*        -.5338655402543
GRID*           11010313                  14.41890709077      -19.218474
*        -.5285843583456
GRID*           11010314                  15.16586243779      -20.587263
*         -.523028213371
GRID*           11010315                  15.91281869708      -21.956053
*        -.5180425897296
GRID*           11010316                  16.65977338554      -23.324842
*        -.5122077313745
GRID*           11010317                  17.40672971059      -24.693632
*        -.5067980031101
GRID*           11010318                  18.15368432662      -26.062421
*        -.5022904436142
GRID*           11010319                  18.90064062136      -27.431211
*        -.4966563061524
GRID*           11010320                   19.6475960869           -28.8
*        -.4916150938752
GRID*           11010322                  5.455440481334        -2.09475
*        -.6167270183173
GRID*           11010323                  5.455440481334         -1.3965
*        -.6167270183173
GRID*           11010324                  5.455440481334         -.69825
*        -.6167270183173
$ GRID*           11010325                  5.455440481334              0.
$ *        -.6167270183173
GRID*           11010401                  5.961157146755          -2.793
*         -.643938319275
GRID*           11010402                  6.688792653136       -4.161789
*        -.6316209504285
GRID*           11010403                  7.416427694282       -5.530579
*        -.6192424328187
GRID*           11010404                  8.144063063511       -6.899368
*        -.6061573329044
GRID*           11010405                  8.871698660136       -8.268158
*        -.5926883670938
GRID*           11010406                   9.59933414454       -9.636947
*        -.5849263925678
GRID*           11010407                  10.32696920023      -11.005737
*        -.5793937163104
GRID*           11010408                  11.05460446181      -12.374526
*        -.5727123348361
GRID*           11010409                  11.78224062911      -13.743316
*          -.56714121213
GRID*           11010410                  12.50987587285      -15.112105
*        -.5599790175727
GRID*           11010411                   13.2375111895      -16.480895
*        -.5551802926035
GRID*           11010412                  13.96514680047      -17.849684
*        -.5478109152299
GRID*           11010413                  14.69278202648      -19.218474
*          -.54108835474
GRID*           11010414                  15.42041697705      -20.587263
*        -.5354244227561
GRID*           11010415                  16.14805294845      -21.956053
*        -.5291583633257
GRID*           11010416                  16.87568809046      -23.324842
*        -.5225562331741
GRID*           11010417                  17.60332425533      -24.693632
*        -.5167869954075
GRID*           11010418                  18.33095881751      -26.062421
*        -.5103030615929
GRID*           11010419                  19.05859495233      -27.431211
*        -.5035079001829
GRID*           11010420                  19.78622967224           -28.8
*        -.4984559448523
GRID*           11010422                  5.961157146755        -2.09475
*         -.643938319275
GRID*           11010423                  5.961157146755         -1.3965
*         -.643938319275
GRID*           11010424                  5.961157146755         -.69825
*         -.643938319275
$ GRID*           11010425                  5.961157146755              0.
$ *         -.643938319275
GRID*           11010501                  6.466873016758          -2.793
*        -.6651681395716
GRID*           11010502                  7.175188575271       -4.161789
*        -.6498431104328
GRID*           11010503                  7.883503886421       -5.530579
*        -.6344634704268
GRID*           11010504                  8.591818227175       -6.899368
*        -.6208254670626
GRID*           11010505                  9.300133943945       -8.268158
*        -.6017232391889
GRID*           11010506                   10.0084498147       -9.636947
*        -.5986390860294
GRID*           11010507                  10.71676485232      -11.005737
*         -.589853546399
GRID*           11010508                  11.42507991069      -12.374526
*        -.5844952765935
GRID*           11010509                  12.13339553171      -13.743316
*        -.5755750870041
GRID*           11010510                  12.84171086972      -15.112105
*        -.5709863043184
GRID*           11010511                  13.55002615582      -16.480895
*        -.5628968942718
GRID*           11010512                  14.25834172119      -17.849684
*        -.5566966857856
GRID*           11010513                  14.96665712123      -19.218474
*        -.5492042818298
GRID*           11010514                  15.67497164244      -20.587263
*        -.5434670179163
GRID*           11010515                  16.38328777391      -21.956053
*        -.5368579890965
GRID*           11010516                  17.09160226746      -23.324842
*        -.5291777033224
GRID*           11010517                  17.79991838198      -24.693632
*        -.5221435826108
GRID*           11010518                  18.50823349405      -26.062421
*        -.5154500199909
GRID*           11010519                  19.21654844504      -27.431211
*        -.5094139531292
GRID*           11010520                  19.92486416793           -28.8
*        -.5026907334578
GRID*           11010522                  6.466873016758        -2.09475
*        -.6651681395716
GRID*           11010523                  6.466873016758         -1.3965
*        -.6651681395716
GRID*           11010524                  6.466873016758         -.69825
*        -.6651681395716
$ GRID*           11010525                  6.466873016758              0.
$ *        -.6651681395716
GRID*           11010601                  6.972589874538          -2.793
*         -.673612474443
GRID*           11010602                  7.661584986098       -4.161789
*         -.658036347101
GRID*           11010603                  8.350580444338       -5.530579
*        -.6409332844587
GRID*           11010604                  9.039575231544       -6.899368
*        -.6256520828924
GRID*           11010605                  9.728570212072       -8.268158
*        -.6098596065055
GRID*           11010606                  10.41756544896       -9.636947
*        -.6001670526627
GRID*           11010607                  11.10656046219      -11.005737
*        -.5944425231985
GRID*           11010608                  11.79555555655      -12.374526
*        -.5856970119342
GRID*           11010609                  12.48455096407      -13.743316
*        -.5800401714129
GRID*           11010610                  13.17354580275      -15.112105
*        -.5728024542548
GRID*           11010611                  13.86254129711      -16.480895
*        -.5657026445264
GRID*           11010612                  14.55153622092      -17.849684
*        -.5591044855771
GRID*           11010613                  15.24053158181      -19.218474
*        -.5507998855207
GRID*           11010614                  15.92952612889      -20.587263
*        -.5458628512371
GRID*           11010615                  16.61852160814      -21.956053
*        -.5373326418867
GRID*           11010616                  17.30751625293      -23.324842
*        -.5304078480051
GRID*           11010617                  17.99651225309      -24.693632
*        -.5234217591348
GRID*           11010618                  18.68550635239      -26.062421
*        -.5168736600758
GRID*           11010619                  19.37450207902      -27.431211
*         -.509234404417
GRID*           11010620                   20.0634969132           -28.8
*        -.5038893312507
GRID*           11010622                  6.972589874538        -2.09475
*         -.673612474443
GRID*           11010623                  6.972589874538         -1.3965
*         -.673612474443
GRID*           11010624                  6.972589874538         -.69825
*         -.673612474443
$ GRID*           11010625                  6.972589874538              0.
$ *         -.673612474443
GRID*           11010701                  7.478306810004          -2.793
*         -.677007829192
GRID*           11010702                  8.147981514212       -4.161789
*        -.6618144318532
GRID*           11010703                  8.817656899532       -5.530579
*        -.6437947152418
GRID*           11010704                  9.487331652256       -6.899368
*        -.6242023613807
GRID*           11010705                  10.15700658708       -8.268158
*        -.6028729782187
GRID*           11010706                  10.82668197632       -9.636947
*        -.5985101128182
GRID*           11010707                  11.49635672459      -11.005737
*        -.5909808465698
GRID*           11010708                  12.16603130945      -12.374526
*        -.5847653065064
GRID*           11010709                  12.83570672779      -13.743316
*        -.5768047973785
GRID*           11010710                  13.50538139642      -15.112105
*        -.5698122355159
GRID*           11010711                  14.17505655527      -16.480895
*        -.5640824269457
GRID*           11010712                  14.84473120949      -17.849684
*        -.5573442449131
GRID*           11010713                  15.51440667361      -19.218474
*        -.5501653632469
GRID*           11010714                   16.1840808838      -20.587263
*        -.5434807925227
GRID*           11010715                  16.85375628053      -21.956053
*        -.5362462038078
GRID*           11010716                  17.52343152298      -23.324842
*        -.5291671977284
GRID*           11010717                  18.19310673414      -24.693632
*         -.522623724998
GRID*           11010718                  18.86278133066      -26.062421
*        -.5160770408219
GRID*           11010719                  19.53245600291      -27.431211
*        -.5092961951202
GRID*           11010720                  20.20213084373           -28.8
*        -.5028166531805
GRID*           11010722                  7.478306810004        -2.09475
*         -.677007829192
GRID*           11010723                  7.478306810004         -1.3965
*         -.677007829192
GRID*           11010724                  7.478306810004         -.69825
*         -.677007829192
$ GRID*           11010725                  7.478306810004              0.
$ *         -.677007829192
GRID*           11010801                  7.984023630107          -2.793
*        -.6748841486537
GRID*           11010802                  8.634378319939       -4.161789
*        -.6550285115997
GRID*           11010803                  9.284733770615       -5.530579
*         -.635279967153
GRID*           11010804                  9.935087924732       -6.899368
*        -.6176023969136
GRID*           11010805                  10.58544284562       -8.268158
*        -.5950439655196
GRID*           11010806                  11.23579828366       -9.636947
*          -.58881829335
GRID*           11010807                  11.88615255748      -11.005737
*        -.5823872556162
GRID*           11010808                  12.53650727466      -12.374526
*        -.5749693764147
GRID*           11010809                  13.18686187873      -13.743316
*        -.5704851727944
GRID*           11010810                  13.83721688178      -15.112105
*        -.5639799843454
GRID*           11010811                  14.48757193921      -16.480895
*        -.5564163803846
GRID*           11010812                  15.13792623888      -17.849684
*        -.5501538475723
GRID*           11010813                  15.78828163226      -19.218474
*        -.5442229696151
GRID*           11010814                  16.43863599309      -20.587263
*        -.5380603349782
GRID*           11010815                  17.08899118126      -21.956053
*        -.5320056522811
GRID*           11010816                  17.73934554562      -23.324842
*        -.5246372002375
GRID*           11010817                   18.3897010562      -24.693632
*        -.5182025337401
GRID*           11010818                  19.04005574347      -26.062421
*        -.5122703956387
GRID*           11010819                      19.6904104      -27.431211
*        -.5057562026398
GRID*           11010820                  20.34076497279           -28.8
*        -.4998563137964
GRID*           11010822                  7.984023630107        -2.09475
*        -.6748841486537
GRID*           11010823                  7.984023630107         -1.3965
*        -.6748841486537
GRID*           11010824                  7.984023630107         -.69825
*        -.6748841486537
$ GRID*           11010825                  7.984023630107              0.
$ *        -.6748841486537
GRID*           11010901                  8.489741394455          -2.793
*        -.6628378500126
GRID*           11010902                   9.12077509551       -4.161789
*        -.6452824531448
GRID*           11010903                  9.751810048774       -5.530579
*        -.6255181068279
GRID*           11010904                  10.38284444245       -6.899368
*        -.6034737150875
GRID*           11010905                  11.01387938992       -8.268158
*        -.5830520376381
GRID*           11010906                  11.64491343237       -9.636947
*        -.5758168862177
GRID*           11010907                   12.2759488979      -11.005737
*        -.5704730008079
GRID*           11010908                  12.90698331741      -12.374526
*        -.5648446654875
GRID*           11010909                  13.53801755196      -13.743316
*        -.5584470207124
GRID*           11010910                  14.16905224974      -15.112105
*        -.5523937867466
GRID*           11010911                  14.80008645291      -16.480895
*         -.547174579628
GRID*           11010912                  15.43112090994      -17.849684
*        -.5416587511096
GRID*           11010913                  16.06215568221      -19.218474
*        -.5354890156883
GRID*           11010914                    16.693190702      -20.587263
*        -.5302109292899
GRID*           11010915                  17.32422493963      -21.956053
*        -.5237678084329
GRID*           11010916                  17.95525926471      -23.324842
*        -.5177856762315
GRID*           11010917                  18.58629487312      -24.693632
*        -.5122407687132
GRID*           11010918                  19.21732893398      -26.062421
*        -.5068018764194
GRID*           11010919                  19.84836367436      -27.431211
*        -.5007967157393
GRID*           11010920                  20.47939816988           -28.8
*        -.4954134748595
GRID*           11010922                  8.489741394455        -2.09475
*        -.6628378500126
GRID*           11010923                  8.489741394455         -1.3965
*        -.6628378500126
GRID*           11010924                  8.489741394455         -.69825
*        -.6628378500126
$ GRID*           11010925                  8.489741394455              0.
$ *        -.6628378500126
GRID*           11070101                3.93828938304225          -2.793
*         .0504855660272
GRID*           11070102                4.74320462084175       -4.161789
*       .011953895312825
GRID*           11070103                 5.5481208719665       -5.530579
*        -.0275892419074
GRID*           11070104                6.35303701125325       -6.899368
*        -.0667629914332
GRID*           11070105                7.15795337598925       -8.268158
*       -.10585815189788
GRID*           11070106                7.96286889685325       -9.636947
*       -.12348710009594
GRID*           11070107                8.76778599973525      -11.005737
*        -.1393449961063
GRID*           11070108                9.57270135090425      -12.374526
*       -.15474219232463
GRID*           11070109                10.3776181707325      -13.743316
*       -.17045054728148
GRID*           11070110                  11.18253394259      -15.112105
*       -.18594496007258
GRID*           11070111                 11.987450263125      -16.480895
*        -.2013165413564
GRID*           11070112                 12.792365670495      -17.849684
*       -.21707584574705
GRID*           11070113                13.5972822295125      -19.218474
*        -.2327066607296
GRID*           11070114                 14.402198634735      -20.587263
*       -.24815286578735
GRID*           11070115                 15.207114577155      -21.956053
*        -.2637775347696
GRID*           11070116                16.0120307585425      -23.324842
*       -.27982648306725
GRID*           11070117                16.8169467120025      -24.693632
*        -.2952297838892
GRID*           11070118                 17.621862741665      -26.062421
*       -.31071193540302
GRID*           11070119                 18.426779237575      -27.431211
*       -.32622706002738
GRID*           11070120                19.2316947252325           -28.8
*       -.34189576584555
$ ... 1168 like lines cut
$ GRID*           11490105                3.93828938304225              0.
$ *         .0504855660272
GRID*           11490201                 3.9382893223685          -2.793
*        -.1298144303987
GRID*           11490202                 3.9382893223685        -2.09475
*        -.1298144303987
GRID*           11490203                 3.9382893223685         -1.3965
*        -.1298144303987
GRID*           11490204                 3.9382893223685         -.69825
*        -.1298144303987
$ GRID*           11490205                 3.9382893223685              0.
$ *        -.1298144303987
GRID*           11490301                3.93828926169475          -2.793
*        -.3101144268246
GRID*           11490302                3.93828926169475        -2.09475
*        -.3101144268246
GRID*           11490303                3.93828926169475         -1.3965
*        -.3101144268246
GRID*           11490304                3.93828926169475         -.69825
*        -.3101144268246
$ GRID*           11490305                3.93828926169475              0.
$ *        -.3101144268246
GRID*           11500101                8.48974112698775          -2.793
*       -.09636546133828
GRID*           11500102                8.48974112698775        -2.09475
*       -.09636546133828
GRID*           11500103                8.48974112698775         -1.3965
*       -.09636546133828
GRID*           11500104                8.48974112698775         -.69825
*       -.09636546133828
$ GRID*           11500105                8.48974112698775              0.
$ *       -.09636546133828
GRID*           11500201                 8.4897412161435          -2.793
*       -.28518959089639
GRID*           11500202                 8.4897412161435        -2.09475
*       -.28518959089639
GRID*           11500203                 8.4897412161435         -1.3965
*       -.28518959089639
GRID*           11500204                 8.4897412161435         -.69825
*       -.28518959089639
$ GRID*           11500205                 8.4897412161435              0.
$ *       -.28518959089639
GRID*           11500301                8.48974130529925          -2.793
*       -.47401372045449
GRID*           11500302                8.48974130529925        -2.09475
*       -.47401372045449
GRID*           11500303                8.48974130529925         -1.3965
*       -.47401372045449
GRID*           11500304                8.48974130529925         -.69825
*       -.47401372045449
$ GRID*           11500305                8.48974130529925              0.
$ *       -.47401372045449
GRID*           11520000                 4.4440062184825        -2.09475
*       .049514582926825
GRID*           11520001                  4.444006135873        -2.09475
*       -.14726651405825
GRID*           11520002                 4.4440060532635        -2.09475
*       -.34404761104333
GRID*           11520003                 4.9497227157835        -2.09475
*       .044509710179625
GRID*           11520004                  4.949722944478        -2.09475
*       -.16455302905085
GRID*           11520005                 4.9497231731725        -2.09475
*       -.37361576828132
GRID*           11520006                5.45543999928875        -2.09475
*        .03628086752795
GRID*           11520007                 5.4554401599705        -2.09475
*        -.1813884277538
GRID*           11520008                5.45544032065225        -2.09475
*       -.39905772303555
GRID*           11520009                5.96115693690275        -2.09475
*       .024142746903825
GRID*           11520010                 5.9611570068535        -2.09475
*       -.19855094182245
GRID*           11520011                5.96115707680425        -2.09475
*       -.42124463054873
GRID*           11520012                 6.4668733565305        -2.09475
*       .006155336996525
GRID*           11520013                  6.466873243273        -2.09475
*       -.21761915519285
GRID*           11520014                 6.4668731300155        -2.09475
*       -.44139364738223
GRID*           11520015                6.97258979302575        -2.09475
*       -.01318275877927
GRID*           11520016                 6.9725898201965        -2.09475
*       -.23332599733385
GRID*           11520017                6.97258984736725        -2.09475
*       -.45346923588843
GRID*           11520018                 7.4783070463635        -2.09475
*       -.03787974280135
GRID*           11520019                  7.478306967577        -2.09475
*        -.2509224382649
$ ... 708 like lines cut
$ GRID*           21000012                  36.36298491572              0.
$ *         2.875165299344
GRID*           21000101                  37.33124343379             -.5
*         2.811605375834
GRID*           21000102                  37.93089646831       -1.433333
*         2.922423252064
GRID*           21000103                  38.53054926736       -2.366667
*         3.031660242837
GRID*           21000104                  39.13020200816            -3.3
*         3.141446835394
GRID*           21000105                  39.72985538166       -4.233333
*         3.251363132396
GRID*           21000106                  40.32950820126       -5.166667
*          3.36088618333
GRID*           21000107                  40.92916141688            -6.1
*         3.471280564135
GRID*           21000108                  41.52881456786       -7.033333
*         3.580567771738
GRID*           21000109                  42.12846792691       -7.966667
*         3.689874808593
GRID*           21000110                  42.72812124418            -8.9
*          3.79950627678
$ GRID*           21000112                  37.33124343379              0.
$ *         2.811605375834
GRID*           21000201                  38.29950017211             -.5
*         2.802781719674
GRID*           21000202                   38.8305670913       -1.433333
*         2.913661322548
GRID*           21000203                   39.3616345347       -2.366667
*         3.024578766635
GRID*           21000204                  39.89270189614            -3.3
*         3.134834748281
GRID*           21000205                  40.42376851321       -4.233333
*         3.246399017747
GRID*           21000206                  40.95483658369       -5.166667
*         3.356593994998
GRID*           21000207                  41.48590302933            -6.1
*          3.46739326441
GRID*           21000208                  42.01697031935       -7.033333
*         3.578679514366
GRID*           21000209                  42.54803809113       -7.966667
*         3.688549713609
GRID*           21000210                  43.07910517932            -8.9
*         3.798445220781
$ GRID*           21000212                  38.29950017211              0.
$ *         2.802781719674
GRID*           21000301                  39.26775819884             -.5
*         2.843295675482
GRID*           21000302                   39.7302393793       -1.433333
*          2.95133129583
GRID*           21000303                    40.192720492       -2.366667
*         3.059113788286
GRID*           21000304                  40.65520154412            -3.3
*         3.167173701161
GRID*           21000305                  41.11768271502       -4.233333
*         3.275990237274
GRID*           21000306                  41.58016328627       -5.166667
*         3.384299806093
GRID*           21000307                  42.04264438329            -6.1
*         3.491394349583
GRID*           21000308                  42.50512535205       -7.033333
*          3.59999021945
GRID*           21000309                  42.96760679997       -7.966667
*         3.706431139777
GRID*           21000310                  43.43008771284            -8.9
*         3.814357242534
$ GRID*           21000312                  39.26775819884              0.
$ *         2.843295675482
GRID*           21000401                  40.23601556348             -.5
*         2.913413866187
GRID*           21000402                  40.62991001724       -1.433333
*          3.01638706333
GRID*           21000403                  41.02380544812       -2.366667
*         3.119340204103
GRID*           21000404                  41.41770036342            -3.3
*         3.222470161317
GRID*           21000405                  41.81159563411       -4.233333
*         3.325281933131
GRID*           21000406                  42.20549133196       -5.166667
*         3.428409614535
GRID*           21000407                  42.59938642459            -6.1
*          3.53127039057
GRID*           21000408                  42.99328183389       -7.033333
*         3.634204453324
GRID*           21000409                  43.38717686205       -7.966667
*         3.737126116363
GRID*           21000410                  43.78107181102            -8.9
*         3.840093132673
$ GRID*           21000412                  40.23601556348              0.
$ *         2.913413866187
GRID*           21010001                  36.36298495843             -.5
*         3.224980555974
GRID*           21010002                  37.03122358671       -1.433333
*         3.306377214807
GRID*           21010003                  37.69946415274       -2.366667
*         3.388015272157
GRID*           21010004                  38.36770283504            -3.3
*         3.469873851487
GRID*           21010005                  39.03594127327       -4.233333
*         3.551936565027
GRID*           21010006                  39.70418155469       -5.166667
*         3.633519808699
GRID*           21010007                  40.37242064728            -6.1
*         3.715082026856
GRID*           21010008                  41.04065958495       -7.033333
*         3.796906182682
GRID*           21010009                   41.7088988393       -7.966667
*         3.878501471907
GRID*           21010010                  42.37713828355            -8.9
*         3.960313175572
$ GRID*           21010012                  36.36298495843              0.
$ *         3.224980555974
GRID*           21010101                  37.33124278008             -.5
*         3.288398457993
GRID*           21010102                  37.93089591755       -1.433333
*         3.365159489929
GRID*           21010103                  38.53054915596       -2.366667
*         3.440775523702
GRID*           21010104                  39.13020216441            -3.3
*         3.518605820796
GRID*           21010105                  39.72985490984       -4.233333
*          3.59514612587
GRID*           21010106                  40.32950901409       -5.166667
*         3.672221963462
GRID*           21010107                  40.92916147677            -6.1
*         3.749520428396
GRID*           21010108                  41.52881469044       -7.033333
*         3.825911717858
GRID*           21010109                  42.12846777252       -7.966667
*         3.903259946239
GRID*           21010110                   42.7281211833            -8.9
*          3.98048584595
$ GRID*           21010112                  37.33124278008              0.
$ *         3.288398457993
GRID*           21010201                  38.29949975292             -.5
*         3.297160928581
GRID*           21010202                  38.83056691959       -1.433333
*         3.372161691526
GRID*           21010203                  39.36163431925       -2.366667
*         3.448979702539
GRID*           21010204                  39.89270151513            -3.3
*         3.524464382865
GRID*           21010205                  40.42376833719       -4.233333
*         3.599537459226
GRID*           21010206                  40.95483571836       -5.166667
*         3.677032474714
GRID*           21010207                  41.48590311344            -6.1
*         3.752242566686
GRID*           21010208                  42.01696997707       -7.033333
*         3.829199351967
GRID*           21010209                   42.5480384306       -7.966667
*         3.904976000356
GRID*           21010210                  43.07910489817            -8.9
*         3.981456620052
$ GRID*           21010212                  38.29949975292              0.
$ *         3.297160928581
GRID*           21010301                  39.26775822295             -.5
*         3.256692158521
GRID*           21010302                  39.73023915415       -1.433333
*         3.335131621432
GRID*           21010303                  40.19272043405       -2.366667
*         3.414153195377
GRID*           21010304                  40.65520147047            -3.3
*         3.492809997726
GRID*           21010305                  41.11768213514       -4.233333
*         3.570874025095
GRID*           21010306                  41.58016359214       -5.166667
*         3.649764766462
GRID*           21010307                  42.04264464238            -6.1
*         3.728614761434
GRID*           21010308                  42.50512597282       -7.033333
*         3.806817096421
GRID*           21010309                  42.96760687674       -7.966667
*         3.886898452474
GRID*           21010310                   43.4300881419            -8.9
*         3.965639910356
$ GRID*           21010312                  39.26775822295              0.
$ *         3.256692158521
GRID*           21010401                  40.23601506482             -.5
*         3.186599327218
GRID*           21010402                  40.62991013014       -1.433333
*         3.270268392121
GRID*           21010403                  41.02380546193       -2.366667
*         3.353980200734
GRID*           21010404                  41.41770088207            -3.3
*         3.437572646182
GRID*           21010405                  41.81159621681       -4.233333
*         3.521252287471
GRID*           21010406                  42.20549135282       -5.166667
*         3.604934972966
GRID*           21010407                  42.59938618445            -6.1
*         3.688705670089
GRID*           21010408                  42.99328129712       -7.033333
*         3.772488231421
GRID*           21010409                  43.38717670716       -7.966667
*          3.85620357446
GRID*           21010410                  43.78107224786            -8.9
*         3.939891320433
$ GRID*           21010412                  40.23601506482              0.
$ *         3.186599327218
GRID*           21040000                  6.214015269256          -2.793
*       -.20750201064754
GRID*           21040003                6.93198995227475       -4.161789
*       -.22852111605893
GRID*           21040006                  7.649965447626       -5.530579
*       -.24946547444493
GRID*           21040009                8.36794083164775       -6.899368
*       -.26985502397485
GRID*           21040012                9.08591639157675       -8.268158
*       -.29083248534243
GRID*           21040015                9.80389115469475       -9.636947
*       -.29934880469139
GRID*           21040018                10.5218673506768      -11.005737
*       -.30684257119392
GRID*           21040021                11.2398422561323      -12.374526
*       -.31419599844285
GRID*           21040024                11.9578179405925      -13.743316
*       -.32116155276379
GRID*           21040027                12.6757930034725      -15.112105
*        -.3284817872602
GRID*           21040030                 13.393768466515      -16.480895
*       -.33571171176865
GRID*           21040033                  14.11174331691      -17.849684
*       -.34310871158542
GRID*           21040036                14.8297192153775      -19.218474
*        -.3503287222388
GRID*           21040039                  15.54769460045      -20.587263
*       -.35755575680203
GRID*           21040042                 16.265669855805      -21.956053
*       -.36497213457733
GRID*           21040045                16.9836450422475      -23.324842
*       -.37235924088323
GRID*           21040048                17.7016208271425      -24.693632
*        -.3795147575922
GRID*           21040051                   18.4195957872      -26.062421
*       -.38674620901515
GRID*           21040054                 19.137571451315      -27.431211
*        -.3939221081416
GRID*           21040057                 19.855546387095           -28.8
*       -.40134889287128
$ ... 308 like lines cut
$ GRID*           21290102                36.3629849263975              0.
$ *        2.9626191135015
GRID*           21290201                 36.362984937075             -.5
*         3.050072927659
$ GRID*           21290202                 36.362984937075              0.
$ *         3.050072927659
GRID*           21290301                36.3629849477525             -.5
*        3.1375267418165
$ GRID*           21290302                36.3629849477525              0.
$ *        3.1375267418165
GRID*           21300101                 40.236015438815             -.5
*       2.98171023144475
$ GRID*           21300102                 40.236015438815              0.
$ *       2.98171023144475
GRID*           21300201                  40.23601531415             -.5
*        3.0500065967025
$ GRID*           21300202                  40.23601531415              0.
$ *        3.0500065967025
GRID*           21300301                 40.236015189485             -.5
*       3.11830296196025
$ GRID*           21300302                 40.236015189485              0.
$ *       3.11830296196025
GRID*           30000001                  34.53957308285 -.2753444683903
*                    3.3
GRID*           30000002                  35.39467576752 -.2557918711914
*               4.377778
GRID*           30000003                  36.24977749154 -.2364051862799
*               5.455556
GRID*           30000004                  37.10487835966 -.2167636769501
*               6.533333
GRID*           30000005                   37.9599806534 -.1976060330844
*               7.611111
GRID*           30000006                  38.81508296526 -.1785378493301
*               8.688889
GRID*           30000007                  39.67018532957  -.158588244148
*               9.766667
GRID*           30000008                  40.52528671137 -.1390556752251
*              10.844444
GRID*           30000009                  41.38038909764 -.1199176410538
*              11.922222
GRID*           30000010                  42.23549153048 -.1005992847064
*                    13.
GRID*           30000101                  35.90019924346 -.3502586774723
*                    3.3
GRID*           30000102                  36.65943627866 -.3253809376723
*               4.377778
GRID*           30000103                   37.4186732475 -.2993216459129
*               5.455556
GRID*           30000104                  38.17791053489 -.2758788496377
*               6.533333
GRID*           30000105                  38.93714756179 -.2513804385435
*               7.611111
GRID*           30000106                   39.6963843753 -.2262768393763
*               8.688889
GRID*           30000107                  40.45562210688  -.201531548984
*               9.766667
GRID*           30000108                  41.21485848085 -.1771347252548
*              10.844444
GRID*           30000109                  41.97409572006 -.1524033240584
*              11.922222
GRID*           30000110                  42.73333304665  -.128535658481
*                    13.
$ ... 480 like lines cut
$ GRID*           30290101                  34.53957308285-.13767223419515
$ *                    3.3
$ GRID*           30290201                  34.53957308285              0.
$ *                    3.3
$ GRID*           30290301                  34.53957308285 .13767223419515
$ *                    3.3
$ GRID*           30300101                  39.98207688841 -.0956734043443
$ *                    3.3
$ GRID*           30300201                  39.98207688841              0.
$ *                    3.3
$ GRID*           30300301                  39.98207688841  .0956734043443
$ *                    3.3
GRID    40000001             -5.      0.     1.4
GRID    40000002             6.5      0.     1.4
GRID    40000003             14.      0.     1.4
GRID    40000004             35.      0.     1.4
GRID    40000005             36.      0.    3.25
GRID*           41040000                38.2995001256125             -.5
*       3.05003976218075
GRID*           41040003                  38.83056687221       -1.433333
*       3.14330483272875
GRID*           41040006                 39.361634787895       -2.366667
*       3.23665809574925
GRID*           41040009                39.8927017124425            -3.3
*         3.329960221778
GRID*           41040012                40.4237686178675       -4.233333
*       3.42334910451825
GRID*           41040015                 40.954836426305       -5.166667
*       3.51672100578375
GRID*           41040018                41.4859033375575            -6.1
*        3.6099428303775
GRID*           41040021                  42.01697046601       -7.033333
*       3.70328299128225
GRID*           41040024                42.5480378806225       -7.966667
*       3.79671250017375
GRID*           41040027                   43.0791050941            -8.9
*       3.88998718621575
$ELEMENTS_WITH_PROPERTIES
PBARL   4001000140010001             ROD                                +
+             1.      0.
CBAR    40010001400100014000000140000002     -5.      0.      2.
CBAR    40010002400100014000000240000003     6.5      0.      2.
CBAR    40010003400100014000000340000004     14.      0.      2.
CBAR    40010004400100014000000440000005     35.      0.      2.
PCOMP   10002000                                                        +
+       10020001      .3      0.     YES
CQUAD4  100300001000200010000001100001011000010210000002
CQUAD4  100300011000200010000002100001021000010310000003
CQUAD4  100300021000200010000003100001031000010410000004
CQUAD4  100300031000200010000004100001041000010510000005
CQUAD4  100300041000200010000005100001051000010610000006
CQUAD4  100300051000200010000006100001061000010710000007
CQUAD4  100300061000200010000007100001071000010810000008
CQUAD4  100300071000200010000008100001081000010910000009
CQUAD4  100300081000200010000009100001091000011010000010
CQUAD4  100300091000200010000010100001101000011110000011
CQUAD4  100300101000200010000011100001111000011210000012
CQUAD4  100300111000200010000012100001121000011310000013
CQUAD4  100300121000200010000013100001131000011410000014
CQUAD4  100300131000200010000014100001141000011510000015
CQUAD4  100300141000200010000015100001151000011610000016
CQUAD4  100300151000200010000016100001161000011710000017
CQUAD4  100300161000200010000017100001171000011810000018
CQUAD4  100300171000200010000018100001181000011910000019
CQUAD4  100300181000200010000019100001191000012010000020
CQUAD4  100300191000200010000101100002011000020210000102
$ ... 2868 like lines cut
PCOMP   20002000                                                        +
+       20020001      .3      0.     YES
CQUAD4  200300002000200020000001200001012000010220000002
CQUAD4  200300012000200020000002200001022000010320000003
CQUAD4  200300022000200020000003200001032000010420000004
CQUAD4  200300032000200020000004200001042000010520000005
CQUAD4  200300042000200020000005200001052000010620000006
CQUAD4  200300052000200020000006200001062000010720000007
CQUAD4  200300062000200020000007200001072000010820000008
CQUAD4  200300072000200020000008200001082000010920000009
CQUAD4  200300082000200020000009200001092000011020000010
CQUAD4  200300092000200020000101200002012000020220000102
CQUAD4  200300102000200020000102200002022000020320000103
CQUAD4  200300112000200020000103200002032000020420000104
CQUAD4  200300122000200020000104200002042000020520000105
CQUAD4  200300132000200020000105200002052000020620000106
CQUAD4  200300142000200020000106200002062000020720000107
CQUAD4  200300152000200020000107200002072000020820000108
CQUAD4  200300162000200020000108200002082000020920000109
CQUAD4  200300172000200020000109200002092000021020000110
CQUAD4  200300182000200020000201200003012000030220000202
CQUAD4  200300192000200020000202200003022000030320000203
$ ... 636 like lines cut
PCOMP   30002000                                                        +
+       30020001      .3      0.     YES
CQUAD4  300300003000200030000001300001013000010230000002
CQUAD4  300300013000200030000002300001023000010330000003
CQUAD4  300300023000200030000003300001033000010430000004
CQUAD4  300300033000200030000004300001043000010530000005
CQUAD4  300300043000200030000005300001053000010630000006
CQUAD4  300300053000200030000006300001063000010730000007
CQUAD4  300300063000200030000007300001073000010830000008
CQUAD4  300300073000200030000008300001083000010930000009
CQUAD4  300300083000200030000009300001093000011030000010
CQUAD4  300300093000200030000101300002013000020230000102
CQUAD4  300300103000200030000102300002023000020330000103
CQUAD4  300300113000200030000103300002033000020430000104
CQUAD4  300300123000200030000104300002043000020530000105
CQUAD4  300300133000200030000105300002053000020630000106
CQUAD4  300300143000200030000106300002063000020730000107
CQUAD4  300300153000200030000107300002073000020830000108
CQUAD4  300300163000200030000108300002083000020930000109
CQUAD4  300300173000200030000109300002093000021030000110
CQUAD4  300300183000200030000201300003013000030230000202
CQUAD4  300300193000200030000202300003023000030330000203
$ ... 284 like lines cut
$MATERIALS
MAT2*           10020001     8975180000.     1848500000.
*            4287490000.                     1968970000.
MAT2*           20020001     8975180000.     1848500000.
*            4287490000.                     1968970000.
MAT2*           30020001     8975180000.     1848500000.
*            4287490000.                     1968970000.
MAT1*           40010001   200000000000.76923076923.0769              .3
*                     0.
$MASSES
CONM2   1004000210040000        1492.979                                +
+       108.7914        2627.859                2635.619
CONM2   1004000510040003        1484.365                                +
+       278.2171        2416.882                2602.179
CONM2   1004000810040006        1472.277                                +
+       272.3632        2210.545                 2397.92
CONM2   1004001110040009        1456.628                                +
+       266.0622         2009.86                 2198.65
CONM2   1004001410040012        1437.302                                +
+       259.3132        1815.741                2005.245
CONM2   1004001710040015        1414.147                                +
+       252.1082           1629.                1818.479
CONM2   1004002010040018        1386.973                                +
+       244.4314        1450.361                1639.031
CONM2   1004002310040021        1355.537                                +
+       236.2571        1280.455                1467.483
CONM2   1004002610040024        1319.535                                +
+       227.5484        1119.834                1304.329
CONM2   1004002910040027        1278.582                                +
+       218.2541        968.9633                1149.964
CONM2   1004003210040030        1232.183                                +
+       208.3043        828.2302                1004.692
CONM2   1004003510040033        1179.696                                +
+       197.6049         697.938                868.7096
CONM2   1004003810040036        1120.266                                +
+       186.0263        578.3081                742.1005
CONM2   1004004110040039        1052.718                                +
+       173.3877          469.47                624.8083
CONM2   1004004410040042        975.3667                                +
+       159.4264        371.4529                516.5983
CONM2   1004004710040045        885.6468                                +
+       143.7402        284.1562                416.9716
CONM2   1004005010040048        779.2981                                +
+       125.6581        207.2902                324.9787
CONM2   1004005310040051         648.187                                +
+       103.8976        140.1922                   238.7
CONM2   1004005610040054        472.1149                                +
+       75.27057        81.06659                153.2204
CONM2   1004005910040057        124.6756                                +
+       5.183479         16.4912                21.04066
$ ... 120 like lines cut
$RIGID ELEMENTS
RBE3    10040001        10040000              1.     1231001000110010101+
+       1001020110010301100104011001050110010601100107011001080110010901+
+       1000000110000101100002011000030110000401100005011000060110000701+
+       1000080110000901
RBE3    10040004        10040003              1.     1231001000210010102+
+       1001020210010302100104021001050210010602100107021001080210010902+
+       1000000210000102100002021000030210000402100005021000060210000702+
+       1000080210000902
RBE3    10040007        10040006              1.     1231001000310010103+
+       1001020310010303100104031001050310010603100107031001080310010903+
+       1000000310000103100002031000030310000403100005031000060310000703+
+       1000080310000903
RBE3    10040010        10040009              1.     1231001000410010104+
+       1001020410010304100104041001050410010604100107041001080410010904+
+       1000000410000104100002041000030410000404100005041000060410000704+
+       1000080410000904
RBE3    10040013        10040012              1.     1231001000510010105+
+       1001020510010305100104051001050510010605100107051001080510010905+
+       1000000510000105100002051000030510000405100005051000060510000705+
+       1000080510000905
RBE3    10040016        10040015              1.     1231001000610010106+
+       1001020610010306100104061001050610010606100107061001080610010906+
+       1000000610000106100002061000030610000406100005061000060610000706+
+       1000080610000906
RBE3    10040019        10040018              1.     1231001000710010107+
+       1001020710010307100104071001050710010607100107071001080710010907+
+       1000000710000107100002071000030710000407100005071000060710000707+
+       1000080710000907
RBE3    10040022        10040021              1.     1231001000810010108+
+       1001020810010308100104081001050810010608100107081001080810010908+
+       1000000810000108100002081000030810000408100005081000060810000708+
+       1000080810000908
RBE3    10040025        10040024              1.     1231001000910010109+
+       1001020910010309100104091001050910010609100107091001080910010909+
+       1000000910000109100002091000030910000409100005091000060910000709+
+       1000080910000909
RBE3    10040028        10040027              1.     1231001001010010110+
+       1001021010010310100104101001051010010610100107101001081010010910+
+       1000001010000110100002101000031010000410100005101000061010000710+
+       1000081010000910
RBE3    10040031        10040030              1.     1231001001110010111+
+       1001021110010311100104111001051110010611100107111001081110010911+
+       1000001110000111100002111000031110000411100005111000061110000711+
+       1000081110000911
RBE3    10040034        10040033              1.     1231001001210010112+
+       1001021210010312100104121001051210010612100107121001081210010912+
+       1000001210000112100002121000031210000412100005121000061210000712+
+       1000081210000912
RBE3    10040037        10040036              1.     1231001001310010113+
+       1001021310010313100104131001051310010613100107131001081310010913+
+       1000001310000113100002131000031310000413100005131000061310000713+
+       1000081310000913
RBE3    10040040        10040039              1.     1231001001410010114+
+       1001021410010314100104141001051410010614100107141001081410010914+
+       1000001410000114100002141000031410000414100005141000061410000714+
+       1000081410000914
RBE3    10040043        10040042              1.     1231001001510010115+
+       1001021510010315100104151001051510010615100107151001081510010915+
+       1000001510000115100002151000031510000415100005151000061510000715+
+       1000081510000915
RBE3    10040046        10040045              1.     1231001001610010116+
+       1001021610010316100104161001051610010616100107161001081610010916+
+       1000001610000116100002161000031610000416100005161000061610000716+
+       1000081610000916
RBE3    10040049        10040048              1.     1231001001710010117+
+       1001021710010317100104171001051710010617100107171001081710010917+
+       1000001710000117100002171000031710000417100005171000061710000717+
+       1000081710000917
RBE3    10040052        10040051              1.     1231001001810010118+
+       1001021810010318100104181001051810010618100107181001081810010918+
+       1000001810000118100002181000031810000418100005181000061810000718+
+       1000081810000918
RBE3    10040055        10040054              1.     1231001001910010119+
+       1001021910010319100104191001051910010619100107191001081910010919+
+       1000001910000119100002191000031910000419100005191000061910000719+
+       1000081910000919
RBE3    10040058        10040057              1.     1231001002010010120+
+       1001022010010320100104201001052010010620100107201001082010010920+
+       1000002010000120100002201000032010000420100005201000062010000720+
+       1000082010000920
RBE3    10040061        10040060              1.     1231001002210010122+
+       1001022210010322100104221001052210010622100107221001082210010922+
+       1000002210000122100002221000032210000422100005221000062210000722+
+       1000082210000922
RBE3    10040064        10040063              1.     1231001002310010123+
+       1001022310010323100104231001052310010623100107231001082310010923+
+       1000002310000123100002231000032310000423100005231000062310000723+
+       1000082310000923
RBE3    10040067        10040066              1.     1231001002410010124+
+       1001022410010324100104241001052410010624100107241001082410010924+
+       1000002410000124100002241000032410000424100005241000062410000724+
+       1000082410000924
RBE3    10040070        10040069              1.     1231001002510010125+
+       1001022510010325100104251001052510010625100107251001082510010925+
+       1000002510000125100002251000032510000425100005251000062510000725+
+       1000082510000925
RBE3    20040001        20040000              1.     1232001000120010101+
+       2001020120010301200104012000000120000101200002012000030120000401
RBE3    20040004        20040003              1.     1232001000220010102+
+       2001020220010302200104022000000220000102200002022000030220000402
RBE3    20040007        20040006              1.     1232001000320010103+
+       2001020320010303200104032000000320000103200002032000030320000403
RBE3    20040010        20040009              1.     1232001000420010104+
+       2001020420010304200104042000000420000104200002042000030420000404
RBE3    20040013        20040012              1.     1232001000520010105+
+       2001020520010305200104052000000520000105200002052000030520000405
RBE3    20040016        20040015              1.     1232001000620010106+
+       2001020620010306200104062000000620000106200002062000030620000406
RBE3    20040019        20040018              1.     1232001000720010107+
+       2001020720010307200104072000000720000107200002072000030720000407
RBE3    20040022        20040021              1.     1232001000820010108+
+       2001020820010308200104082000000820000108200002082000030820000408
RBE3    20040025        20040024              1.     1232001000920010109+
+       2001020920010309200104092000000920000109200002092000030920000409
RBE3    20040028        20040027              1.     1232001001020010110+
+       2001021020010310200104102000001020000110200002102000031020000410
RBE3    20040031        20040030              1.     1232001001220010112+
+       2001021220010312200104122000001220000112200002122000031220000412
RBE3    21040001        21040000              1.     1231101000111010101+
+       1101020111010301110104011101050111010601110107011101080111010901+
+       1100000111000101110002011100030111000401110005011100060111000701+
+       1100080111000901
RBE3    21040004        21040003              1.     1231101000211010102+
+       1101020211010302110104021101050211010602110107021101080211010902+
+       1100000211000102110002021100030211000402110005021100060211000702+
+       1100080211000902
RBE3    21040007        21040006              1.     1231101000311010103+
+       1101020311010303110104031101050311010603110107031101080311010903+
+       1100000311000103110002031100030311000403110005031100060311000703+
+       1100080311000903
RBE3    21040010        21040009              1.     1231101000411010104+
+       1101020411010304110104041101050411010604110107041101080411010904+
+       1100000411000104110002041100030411000404110005041100060411000704+
+       1100080411000904
RBE3    21040013        21040012              1.     1231101000511010105+
+       1101020511010305110104051101050511010605110107051101080511010905+
+       1100000511000105110002051100030511000405110005051100060511000705+
+       1100080511000905
RBE3    21040016        21040015              1.     1231101000611010106+
+       1101020611010306110104061101050611010606110107061101080611010906+
+       1100000611000106110002061100030611000406110005061100060611000706+
+       1100080611000906
RBE3    21040019        21040018              1.     1231101000711010107+
+       1101020711010307110104071101050711010607110107071101080711010907+
+       1100000711000107110002071100030711000407110005071100060711000707+
+       1100080711000907
RBE3    21040022        21040021              1.     1231101000811010108+
+       1101020811010308110104081101050811010608110107081101080811010908+
+       1100000811000108110002081100030811000408110005081100060811000708+
+       1100080811000908
RBE3    21040025        21040024              1.     1231101000911010109+
+       1101020911010309110104091101050911010609110107091101080911010909+
+       1100000911000109110002091100030911000409110005091100060911000709+
+       1100080911000909
RBE3    21040028        21040027              1.     1231101001011010110+
+       1101021011010310110104101101051011010610110107101101081011010910+
+       1100001011000110110002101100031011000410110005101100061011000710+
+       1100081011000910
RBE3    21040031        21040030              1.     1231101001111010111+
+       1101021111010311110104111101051111010611110107111101081111010911+
+       1100001111000111110002111100031111000411110005111100061111000711+
+       1100081111000911
RBE3    21040034        21040033              1.     1231101001211010112+
+       1101021211010312110104121101051211010612110107121101081211010912+
+       1100001211000112110002121100031211000412110005121100061211000712+
+       1100081211000912
RBE3    21040037        21040036              1.     1231101001311010113+
+       1101021311010313110104131101051311010613110107131101081311010913+
+       1100001311000113110002131100031311000413110005131100061311000713+
+       1100081311000913
RBE3    21040040        21040039              1.     1231101001411010114+
+       1101021411010314110104141101051411010614110107141101081411010914+
+       1100001411000114110002141100031411000414110005141100061411000714+
+       1100081411000914
RBE3    21040043        21040042              1.     1231101001511010115+
+       1101021511010315110104151101051511010615110107151101081511010915+
+       1100001511000115110002151100031511000415110005151100061511000715+
+       1100081511000915
RBE3    21040046        21040045              1.     1231101001611010116+
+       1101021611010316110104161101051611010616110107161101081611010916+
+       1100001611000116110002161100031611000416110005161100061611000716+
+       1100081611000916
RBE3    21040049        21040048              1.     1231101001711010117+
+       1101021711010317110104171101051711010617110107171101081711010917+
+       1100001711000117110002171100031711000417110005171100061711000717+
+       1100081711000917
RBE3    21040052        21040051              1.     1231101001811010118+
+       1101021811010318110104181101051811010618110107181101081811010918+
+       1100001811000118110002181100031811000418110005181100061811000718+
+       1100081811000918
RBE3    21040055        21040054              1.     1231101001911010119+
+       1101021911010319110104191101051911010619110107191101081911010919+
+       1100001911000119110002191100031911000419110005191100061911000719+
+       1100081911000919
RBE3    21040058        21040057              1.     1231101002011010120+
+       1101022011010320110104201101052011010620110107201101082011010920+
+       1100002011000120110002201100032011000420110005201100062011000720+
+       1100082011000920
RBE3    21040061        21040060              1.     1231101002211010122+
+       1101022211010322110104221101052211010622110107221101082211010922+
+       1100002211000122110002221100032211000422110005221100062211000722+
+       1100082211000922
RBE3    21040064        21040063              1.     1231101002311010123+
+       1101022311010323110104231101052311010623110107231101082311010923+
+       1100002311000123110002231100032311000423110005231100062311000723+
+       1100082311000923
RBE3    21040067        21040066              1.     1231101002411010124+
+       1101022411010324110104241101052411010624110107241101082411010924+
+       1100002411000124110002241100032411000424110005241100062411000724+
+       1100082411000924
RBE3    30040001        30040000              1.     1233001000130010101+
+       3001020130010301300104013000000130000101300002013000030130000401
RBE3    30040004        30040003              1.     1233001000230010102+
+       3001020230010302300104023000000230000102300002023000030230000402
RBE3    30040007        30040006              1.     1233001000330010103+
+       3001020330010303300104033000000330000103300002033000030330000403
RBE3    30040010        30040009              1.     1233001000430010104+
+       3001020430010304300104043000000430000104300002043000030430000404
RBE3    30040013        30040012              1.     1233001000530010105+
+       3001020530010305300104053000000530000105300002053000030530000405
RBE3    30040016        30040015              1.     1233001000630010106+
+       3001020630010306300104063000000630000106300002063000030630000406
RBE3    30040019        30040018              1.     1233001000730010107+
+       3001020730010307300104073000000730000107300002073000030730000407
RBE3    30040022        30040021              1.     1233001000830010108+
+       3001020830010308300104083000000830000108300002083000030830000408
RBE3    30040025        30040024              1.     1233001000930010109+
+       3001020930010309300104093000000930000109300002093000030930000409
RBE3    30040028        30040027              1.     1233001001030010110+
+       3001021030010310300104103000001030000110300002103000031030000410
RBE2    4003000140000002  1234561000002510000125100002251000032510000425+
+       1000052510000625100007251000082510000925100100251001012510010225+
+       10010325100104251001052510010625100107251001082510010925
RBE2    4003000240000004  1234562000001220000112200002122000031220000412+
+       2001001220010112200102122001031220010412
RBE2    4003000340000005  1234563000000130000101300002013000030130000401+
+       3001000130010101300102013001030130010401
RBE3    41040001        41040000              1.     1232101000121010101+
+       2101020121010301210104012100000121000101210002012100030121000401
RBE3    41040004        41040003              1.     1232101000221010102+
+       2101020221010302210104022100000221000102210002022100030221000402
RBE3    41040007        41040006              1.     1232101000321010103+
+       2101020321010303210104032100000321000103210002032100030321000403
RBE3    41040010        41040009              1.     1232101000421010104+
+       2101020421010304210104042100000421000104210002042100030421000404
RBE3    41040013        41040012              1.     1232101000521010105+
+       2101020521010305210104052100000521000105210002052100030521000405
RBE3    41040016        41040015              1.     1232101000621010106+
+       2101020621010306210104062100000621000106210002062100030621000406
RBE3    41040019        41040018              1.     1232101000721010107+
+       2101020721010307210104072100000721000107210002072100030721000407
RBE3    41040022        41040021              1.     1232101000821010108+
+       2101020821010308210104082100000821000108210002082100030821000408
RBE3    41040025        41040024              1.     1232101000921010109+
+       2101020921010309210104092100000921000109210002092100030921000409
RBE3    41040028        41040027              1.     1232101001021010110+
+       2101021021010310210104102100001021000110210002102100031021000410

$------1$------2$------3$------4$------5$------6$------7$------8$------9$-----10$
$ASET1	C	ID1	ID2	ID3
$ ASET1   123456    999000  999001  999002  999003  999004  999005  999006+
$ +         999007  999008  999009  999010  999011  999012  999013  999014+
$ +         999015  999016  999017  999018  999019  999020  999021  999022+
$ +         999023  999024  999025  999026  999027  999028  999029  999030+
$ +         999031  999032  999033  999034  999035  999036  999037  999038+
$ +         999039  999040  999041  999042  999043  999044  999045  999046+
$ +         999047  999048  999049  999050  999051  999052  999053  999054+
$ +         999055  999056  999057  999058  999059  999060  999061  999062+
$ +         999063  999064  999065  999066  999067  999068  999069  999070+
$ +         999071  999072  999073  999074  999075  999076  999077  


GRID      999000          6.2140  2.7930 -0.2075
GRID      999001          6.9320  4.1618 -0.2285
GRID      999002          7.6500  5.5306 -0.2495
GRID      999003          8.3679  6.8994 -0.2699
GRID      999004          9.0859  8.2682 -0.2908
GRID      999005          9.8039  9.6369 -0.2993
GRID      999006         10.5219 11.0057 -0.3068
GRID      999007         11.2398 12.3745 -0.3142
GRID      999008         11.9578 13.7433 -0.3212
GRID      999009         12.6758 15.1121 -0.3285
GRID      999010         13.3938 16.4809 -0.3357
GRID      999011         14.1117 17.8497 -0.3431
GRID      999012         14.8297 19.2185 -0.3503
GRID      999013         15.5477 20.5873 -0.3576
GRID      999014         16.2657 21.9561 -0.3650
GRID      999015         16.9836 23.3248 -0.3724
GRID      999016         17.7016 24.6936 -0.3795
GRID      999017         18.4196 26.0624 -0.3867
GRID      999018         19.1376 27.4312 -0.3939
GRID      999019         19.8555 28.8000 -0.4013
$ ... 58 like lines cut
$GRID      999078         -5.      0.     1.4
GRID      999079         14.      0.     1.4

CBUSH       2000    3001  99900010040000                            8001
CBUSH       2001    3001  99900110040003                            8001
CBUSH       2002    3001  99900210040006                            8001
CBUSH       2003    3001  99900310040009                            8001
CBUSH       2004    3001  99900410040012                            8001
CBUSH       2005    3001  99900510040015                            8001
CBUSH       2006    3001  99900610040018                            8001
CBUSH       2007    3001  99900710040021                            8001
CBUSH       2008    3001  99900810040024                            8001
CBUSH       2009    3001  99900910040027                            8001
CBUSH       2010    3001  99901010040030                            8001
CBUSH       2011    3001  99901110040033                            8001
CBUSH       2012    3001  99901210040036                            8001
CBUSH       2013    3001  99901310040039                            8001
CBUSH       2014    3001  99901410040042                            8001
CBUSH       2015    3001  99901510040045                            8001
CBUSH       2016    3001  99901610040048                            8001
CBUSH       2017    3001  99901710040051                            8001
CBUSH       2018    3001  99901810040054                            8001
CBUSH       2019    3001  99901910040057                            8001
$ ... 58 like lines cut
$CBUSH       2078    3001  99907840000001                            8001
CBUSH       2079    3001  99907940000003                            8001

CORD2R  8001                 0.0     0.0     0.0     0.0     0.0     1.0+
+            1.0     0.0     1.0

PBUSH   3001    K       1.0+12  1.0+12  1.0+12  1.0+12  1.0+12  1.0+12
