$ NASTRAN input file created by the Patran 2016 input file translator on
$  November  20, 2017 at 13:42:17.
$ Direct Text Input for Nastran System Cell Section
$ Normal Modes Analysis, Database
SOL 103
CEND
ECHO = NONE
$ Using Nastran default values for RESVEC
SUBCASE 1
$ Subcase name : Default
   SUBTITLE=Default
   METHOD = 1
   SPC = 2
   MPC = 1
   VECTOR(SORT1,REAL)=ALL
   SPCFORCES(SORT1,REAL)=ALL
BEGIN BULK
PARAM    POST    0
PARAM   PRTMAXIM YES
PARAM,EXTOUT,DMIGPCH 
EIGRL    1                       20      0
$ Elements and Element Properties for region : pbeam.1
PBEAM   1       1       50.      1.      2.             10.
CBEAM    1       1       4       2       0.      0.     1.
$ CBEAM    2       1       5       3       0.      0.     1.
MPC,535,4,1,-1.,1,1,1.
MPC,535,4,2,-1.,1,2,1.
MPC,535,4,3,-1.,1,3,1.
$MPC,536,5,1,-1.,2,1,1.
$MPC,536,5,2,-1.,2,2,1.
$MPC,536,5,3,-1.,2,3,1.
$MPC,535,27,4,-1.,2,4,1.
$MPC,535,27,5,-1.,2,5,1.
$MPC,535,27,6,-1.,2,6,1.
MPCADD,1,535
$ Elements and Element Properties for region : conm2
CONM2    52      1       0      01.      0.      0.      0.
+       2.e-6    0.      1.e-6   0.      0.      3.e-6
CONM2    53      2       0      01.      0.      0.      0.
+       2.e-6    0.      1.e-6   0.      0.      3.e-6
$ CONM2    54      3       0      01.      0.      0.      0.
$ +       2.e-6    0.      1.e-6   0.      0.      3.e-6
CONM2    55      4       0      01.      0.      0.      0.
+       2.e-6    0.      1.e-6   0.      0.      3.e-6
$ CONM2    56      5       0      01.      0.      0.      0.
$ +       2.e-6    0.      1.e-6   0.      0.      3.e-6
$ CMASS2,52,40.,2,1
$ CMASS2,62,40.,2,2
$ CMASS2,72,40.,2,3
$ CMASS2,53,80.,3,1
$ CMASS2,63,80.,3,2
$ CMASS2,73,80.,3,3
$ CMASS2,54,40.,4,1
$ CMASS2,64,40.,4,2
$ CMASS2,74,40.,4,3
$ CMASS2,55,40.,5,1
$ CMASS2,65,40.,5,2
$ CMASS2,75,40.,5,3
MAT1    1       1.0+7           .3
$ Nodes of the Entire Model
GRID     1               0.      0.      0.
GRID     2               01.       0.      0.
$GRID     3               80.       0.      0.
GRID     4               0.        0.      0.
$GRID     5               01.       0.      0.
$ Loads for Load Case : Default
SPCADD   2       1
$ Displacement Constraints of Load Set : spc1.1
SPC1     1       123456  1
$ Referenced Coordinate Frames
ENDDATA 7373b16c
