$pyNastran: version=msc
$pyNastran: punch=False
$pyNastran: encoding=ascii
$pyNastran: nnodes=26
$pyNastran: nelements=25
$EXECUTIVE CONTROL DECK
SOL 400
CEND
$CASE CONTROL DECK
TITLE=Beam1_400 
ECHO=NONE 
SUBCASE 1 
  SUBTITLE=load1 
  ANALYSIS = NLTRAN 
  NLSTEP = 1 
  SPC = 2
  MPC = 1
  DLOAD = 4
  $IC=1  
  DISPLACEMENT(SORT1,REAL) =ALL 
BEGIN BULK 
PARAM,LGDISP,1 
PARAM,POST,-1
$ Elements and Element Properties for region : pbeam.1
PBEAM   1       1       50.      1.      2.             10.
CBEAM    1       1       4       2       0.      0.     1.
$ CBEAM    2       1       5       3       0.      0.     1.
MPC,535,4,1,-1.,1,1,1.
MPC,535,4,2,-1.,1,2,1.
MPC,535,4,3,-1.,1,3,1.
MPCADD,1,535
$ Elements and Element Properties for region : conm2
CONM2    52      1       0      01.      0.      0.      0.
+       2.e-6    0.      1.e-6   0.      0.      3.e-6
CONM2    53      2       0      01.      0.      0.      0.
+       2.e-6    0.      1.e-6   0.      0.      3.e-6
CONM2    55      4       0      01.      0.      0.      0.
+       2.e-6    0.      1.e-6   0.      0.      3.e-6
MAT1    1       1.0+7           .3
$ Nodes of the Entire Model
GRID     1               0.      0.      0.
GRID     2               01.       0.      0.
GRID     4               0.        0.      0.
$ Loads for Load Case : Default
SPCADD   2       1
$ Displacement Constraints of Load Set : spc1.1
SPC1     1       123456  1
LOAD,1,1.,1.,2
GRAV,2,0,9.81,0.,0.,-1.
$FORCE,2,2,0,9.81,0.,0.,-1.
TABLED1        1
              0.      1.    100.      1.    ENDT
TLOAD1,3,1,,,1
DLOAD,4,1.,1.,3
$TIC, 1, 2, 2, 0.0, 0.
$TIC, 1, 3, 2, 0.0, -60.
$ TIC, 1, 5, 2, 0.0, 0.1
$ Loads for Load Case : Default
NLSTEP         1     20.
         GENERAL
           FIXED   10000
ENDDATA 7373b16c
