$pyNastran: version=msc
$pyNastran: punch=False
$pyNastran: encoding=ascii
$pyNastran: nnodes=26
$pyNastran: nelements=25
$EXECUTIVE CONTROL DECK
SOL 400
CEND
$CASE CONTROL DECK
TITLE=Beam1_400 
ECHO=NONE 
SUBCASE 1 
  SUBTITLE=load1 
  ANALYSIS = NLTRAN 
  NLSTEP = 1 
  SPC = 2
  MPC = 1
  IC=1  
  DISPLACEMENT(SORT1,REAL) =ALL 
BEGIN BULK 
PARAM,LGDISP,1 
PARAM,POST,-1
$ Elements and Element Properties for region : pbeam.1
PBEAM    1       1      50.     200.    100.            10.
CBEAM    1       1       4       2       0.      0.     1.
CBEAM    2       1       2       3       0.      0.     1.
MPC,535,4,1,-1.,1,1,1.
MPC,535,4,2,-1.,1,2,1.
MPC,535,4,3,-1.,1,3,1.
MPC,536,5,1,-1.,2,1,1.
MPC,536,5,2,-1.,2,2,1.
MPC,536,5,3,-1.,2,3,1.
$MPC,535,27,4,-1.,2,4,1.
$MPC,535,27,5,-1.,2,5,1.
$MPC,535,27,6,-1.,2,6,1.
MPCADD,1,535,536
$ Elements and Element Properties for region : conm2
CONM2    52      1       0      80.      0.      0.      0.
+       200.    0.      150.    0.      0.      380.
CONM2    53      2       0      80.      0.      0.      0.
+       200.    0.      150.    0.      0.      380.
CONM2    54      3       0      80.      0.      0.      0.
+       200.    0.      150.    0.      0.      380.
CONM2    55      4       0      80.      0.      0.      0.
+       200.    0.      150.    0.      0.      380.
CONM2    56      5       0      80.      0.      0.      0.
+       200.    0.      150.    0.      0.      380.
MAT1*    1              1.0+7           8.+7             .3
*
$ Nodes of the Entire Model
GRID     1               0.      0.      0.
GRID     2               60.       0.      0.
GRID     3               80.       0.      0.
GRID     4               0.        0.      0.
GRID     5               60.       0.      0.
TIC, 1, 2, 2, 0.0, 1.
TIC, 1, 3, 2, 0.0, 4.
$ Loads for Load Case : Default
SPCADD   2       1
$ Displacement Constraints of Load Set : spc1.1
SPC1     1       123456  1
NLSTEP         1     20.
         GENERAL
           FIXED    5000
ENDDATA 7373b16c
