$pyNastran: version=msc
$pyNastran: punch=False
$pyNastran: encoding=ascii
$pyNastran: nnodes=25
$pyNastran: nelements=24
$EXECUTIVE CONTROL DECK
SOL 103
CEND
$CASE CONTROL DECK
TITLE=Beam1_103 
ECHO=NONE  
SUBCASE 1 
SPC=2  
BEGIN BULK 
PARAM,EXTOUT,DMIGPCH 
$NODES
GRID           1              0.      0.      0.
GRID           2             .25-.333333      0.
GRID           3              .5-.666667      0.
GRID           4             .75     -1.      0.
GRID           5              1.-1.33333      0.
GRID           6            1.25-1.66667      0.
GRID           7             1.5     -2.      0.
GRID           8            1.75-2.33333      0.
GRID           9              2.-2.66667      0.
GRID          10            2.25     -3.      0.
GRID          11             2.5-3.33333      0.
GRID          12            2.75-3.66667      0.
GRID          13              3.     -4.      0.
GRID          14            3.25-4.33333      0.
GRID          15             3.5-4.66667      0.
GRID          16            3.75     -5.      0.
GRID          17              4.-5.33333      0.
GRID          18            4.25-5.66667      0.
GRID          19             4.5     -6.      0.
GRID          20            4.75-6.33333      0.
$ ... 5 like lines cut
$ELEMENTS
CBEAM          1       1       1       2      0.      1.      0.
CBEAM          2       1       2       3      0.      1.      0.
CBEAM          3       1       3       4      0.      1.      0.
CBEAM          4       1       4       5      0.      1.      0.
CBEAM          5       1       5       6      0.      1.      0.
CBEAM          6       1       6       7      0.      1.      0.
CBEAM          7       1       7       8      0.      1.      0.
CBEAM          8       1       8       9      0.      1.      0.
CBEAM          9       1       9      10      0.      1.      0.
CBEAM         10       1      10      11      0.      1.      0.
CBEAM         11       1      11      12      0.      1.      0.
CBEAM         12       1      12      13      0.      1.      0.
CBEAM         13       1      13      14      0.      1.      0.
CBEAM         14       1      14      15      0.      1.      0.
CBEAM         15       1      15      16      0.      1.      0.
CBEAM         16       1      16      17      0.      1.      0.
CBEAM         17       1      17      18      0.      1.      0.
CBEAM         18       1      18      19      0.      1.      0.
CBEAM         19       1      19      20      0.      1.      0.
CBEAM         20       1      20      21      0.      1.      0.
$ ... 4 like lines cut
$PROPERTIES
PBEAM          1       1      .1    .005    .005             .01
+
              NO      1.      .1    .005    .005             .01
              1.      1.
              2.
$MATERIALS
MAT1           1 100000.              0.
$MASSES
CONM2         50       1              .4
              8.              4.                      4.
CONM2         51       2              .4
              8.              4.                      4.
CONM2         52       3              .4
              8.              4.                      4.
CONM2         53       4              .4
              8.              4.                      4.
CONM2         54       5              .4
              8.              4.                      4.
CONM2         55       6              .4
              8.              4.                      4.
CONM2         56       7              .4
              8.              4.                      4.
CONM2         57       8              .4
              8.              4.                      4.
CONM2         58       9              .4
              8.              4.                      4.
CONM2         59      10              .4
              8.              4.                      4.
CONM2         60      11              .4
              8.              4.                      4.
CONM2         61      12              .4
              8.              4.                      4.
CONM2         62      13              .4
              8.              4.                      4.
CONM2         63      14              .4
              8.              4.                      4.
CONM2         64      15              .4
              8.              4.                      4.
CONM2         65      16              .4
              8.              4.                      4.
CONM2         66      17              .4
              8.              4.                      4.
CONM2         67      18              .4
              8.              4.                      4.
CONM2         68      19              .4
              8.              4.                      4.
CONM2         69      20              .4
              8.              4.                      4.
$ ... 10 like lines cut
