$pyNastran: version=msc
$pyNastran: punch=False
$pyNastran: encoding=ascii
$pyNastran: nnodes=50
$pyNastran: nelements=49
$EXECUTIVE CONTROL DECK
SOL 103
CEND
$CASE CONTROL DECK
TITLE=Beam1_103 
ECHO=NONE  
SUBCASE 1 
SPC=2  
BEGIN BULK 
PARAM,EXTOUT,DMIGPCH 
$NODES
GRID           1              0.      0.      0.
GRID           2         .122449-.163265      0.
GRID           3         .244898-.326531      0.
GRID           4        .3673469-.489796      0.
GRID           5        .4897959-.653061      0.
GRID           6        .6122449-.816327      0.
GRID           7        .7346939-.979592      0.
GRID           8        .8571429-1.14286      0.
GRID           9        .9795918-1.30612      0.
GRID          10        1.102041-1.46939      0.
GRID          11         1.22449-1.63265      0.
GRID          12        1.346939-1.79592      0.
GRID          13        1.469388-1.95918      0.
GRID          14        1.591837-2.12245      0.
GRID          15        1.714286-2.28571      0.
GRID          16        1.836735-2.44898      0.
GRID          17        1.959184-2.61224      0.
GRID          18        2.081633-2.77551      0.
GRID          19        2.204082-2.93878      0.
GRID          20        2.326531-3.10204      0.
$ ... 30 like lines cut
$ELEMENTS
CBEAM          1       1       1       2      0.      1.      0.
CBEAM          2       1       2       3      0.      1.      0.
CBEAM          3       1       3       4      0.      1.      0.
CBEAM          4       1       4       5      0.      1.      0.
CBEAM          5       1       5       6      0.      1.      0.
CBEAM          6       1       6       7      0.      1.      0.
CBEAM          7       1       7       8      0.      1.      0.
CBEAM          8       1       8       9      0.      1.      0.
CBEAM          9       1       9      10      0.      1.      0.
CBEAM         10       1      10      11      0.      1.      0.
CBEAM         11       1      11      12      0.      1.      0.
CBEAM         12       1      12      13      0.      1.      0.
CBEAM         13       1      13      14      0.      1.      0.
CBEAM         14       1      14      15      0.      1.      0.
CBEAM         15       1      15      16      0.      1.      0.
CBEAM         16       1      16      17      0.      1.      0.
CBEAM         17       1      17      18      0.      1.      0.
CBEAM         18       1      18      19      0.      1.      0.
CBEAM         19       1      19      20      0.      1.      0.
CBEAM         20       1      20      21      0.      1.      0.
$ ... 29 like lines cut
$PROPERTIES
PBEAM          1       1      .1    .005    .005             .01
+
              NO      1.      .1    .005    .005             .01
              1.      1.
              2.
$MATERIALS
MAT1           1 100000.              0.
$MASSES
CONM2        100       1              .2
              4.              2.                      2.
CONM2        101       2              .2
              4.              2.                      2.
CONM2        102       3              .2
              4.              2.                      2.
CONM2        103       4              .2
              4.              2.                      2.
CONM2        104       5              .2
              4.              2.                      2.
CONM2        105       6              .2
              4.              2.                      2.
CONM2        106       7              .2
              4.              2.                      2.
CONM2        107       8              .2
              4.              2.                      2.
CONM2        108       9              .2
              4.              2.                      2.
CONM2        109      10              .2
              4.              2.                      2.
CONM2        110      11              .2
              4.              2.                      2.
CONM2        111      12              .2
              4.              2.                      2.
CONM2        112      13              .2
              4.              2.                      2.
CONM2        113      14              .2
              4.              2.                      2.
CONM2        114      15              .2
              4.              2.                      2.
CONM2        115      16              .2
              4.              2.                      2.
CONM2        116      17              .2
              4.              2.                      2.
CONM2        117      18              .2
              4.              2.                      2.
CONM2        118      19              .2
              4.              2.                      2.
CONM2        119      20              .2
              4.              2.                      2.
$ ... 60 like lines cut
