$ NASTRAN input file created by the Patran 2016 input file translator on
$  November  20, 2017 at 13:42:17.
$ Direct Text Input for Nastran System Cell Section
$ Normal Modes Analysis, Database
SOL 103
CEND
ECHO = NONE
$ Using Nastran default values for RESVEC
SUBCASE 1
$ Subcase name : Default
   SUBTITLE=Default
   METHOD = 1
   SPC = 2
   MPC = 1
   VECTOR(SORT1,REAL)=ALL
   SPCFORCES(SORT1,REAL)=ALL
BEGIN BULK
PARAM    POST    0
PARAM   PRTMAXIM YES
$PARAM,EXTOUT,DMIGPCH 
EIGRL    1                       125      0
$ Elements and Element Properties for region : pbeam.1
PBEAM    1       1      0.1     80.0    0.02             1.
CBEAM    1       1      26       2       0.      0.     1.
CBEAM    2       1       2       3       0.      0.     1.
CBEAM    3       1       3       4       0.      0.     1.
CBEAM    4       1       4       5       0.      0.     1.
CBEAM    5       1       5       6       0.      0.     1.
CBEAM    6       1       6       7       0.      0.     1.
CBEAM    7       1       7       8       0.      0.     1.
CBEAM    8       1       8       9       0.      0.     1.
CBEAM    9       1       9      10       0.      0.     1.
CBEAM   10       1      10      11       0.      0.     1.
CBEAM   11       1      11      12       0.      0.     1.
CBEAM   12       1      12      13       0.      0.     1.
CBEAM   13       1      13      14       0.      0.     1.
CBEAM   14       1      14      15       0.      0.     1.
CBEAM   15       1      15      16       0.      0.     1.
CBEAM   16       1      16      17       0.      0.     1.
CBEAM   17       1      17      18       0.      0.     1.
CBEAM   18       1      18      19       0.      0.     1.
CBEAM   19       1      19      20       0.      0.     1.
CBEAM   20       1      20      21       0.      0.     1.
MPC,535,26,1,-1.,1,1,1.
MPC,535,26,2,-1.,1,2,1.
MPC,535,26,3,-1.,1,3,1.
$MPC,536,27,1,-1.,16,1,1.
$MPC,536,27,2,-1.,16,2,1.
$MPC,536,27,3,-1.,16,3,1.
$MPC,535,27,4,-1.,2,4,1.
$MPC,535,27,5,-1.,2,5,1.
$MPC,535,27,6,-1.,2,6,1.
MPCADD,1,535
$ Elements and Element Properties for region : conm2
CONM2    52      1       0      80.      0.      0.      0.
+       200.    0.      150.    0.      0.      380.
CONM2    53      2       0      80.      0.      0.      0.
+       200.    0.      150.    0.      0.      380.
CONM2    54      3       0      80.      0.      0.      0.
+       200.    0.      150.    0.      0.      380.
CONM2    55      4       0      80.      0.      0.      0.
+       200.    0.      150.    0.      0.      380.
CONM2    56      5       0      80.      0.      0.      0.
+       200.    0.      150.    0.      0.      380.
CONM2    57      6       0      80.      0.      0.      0.
+       200.    0.      150.    0.      0.      380.
CONM2    58      7       0      80.      0.      0.      0.
+       200.    0.      150.    0.      0.      380.
CONM2    59      8       0      80.      0.      0.      0.
+       200.    0.      150.    0.      0.      380.
CONM2    60      9       0      80.      0.      0.      0.
+       200.    0.      150.    0.      0.      380.
CONM2    61     10       0      80.      0.      0.      0.
+       200.    0.      150.    0.      0.      380.
CONM2    62     11       0      80.      0.      0.      0.
+       200.    0.      150.    0.      0.      380.
CONM2    63     12       0      80.      0.      0.      0.
+       200.    0.      150.    0.      0.      380.
CONM2    64     13       0      80.      0.      0.      0.
+       200.    0.      150.    0.      0.      380.
CONM2    65     14       0      80.      0.      0.      0.
+       200.    0.      150.    0.      0.      380.
CONM2    66     15       0      80.      0.      0.      0.
+       200.    0.      150.    0.      0.      380.
CONM2    67     16       0      40.      0.      0.      0.
+       100.    0.      075.    0.      0.      190.
CONM2    68     17       0      80.      0.      0.      0.
+       200.    0.      150.    0.      0.      380.
CONM2    69     18       0      80.      0.      0.      0.
+       200.    0.      150.    0.      0.      380.
CONM2    70     19       0      80.      0.      0.      0.
+       200.    0.      150.    0.      0.      380.
CONM2    71     20       0      80.      0.      0.      0.
+       200.    0.      150.    0.      0.      380.
CONM2    72     21       0      80.      0.      0.      0.
+       200.    0.      150.    0.      0.      380.
CONM2    73     26       0      80.      0.      0.      0.
+       200.    0.      150.    0.      0.      380.
$ CONM2    74     27       0      40.      0.      0.      0.
$ +       100.    0.      075.     0.      0.     190.
MAT1    1       2.+6            .3
$ Nodes of the Entire Model
GRID     1               0.      0.      0.
GRID     2               4.       0.      0.
GRID     3               8.       0.      0.
GRID     4               12.       0.      0.
GRID     5               16.       0.      0.
GRID     6               20.       0.      0.
GRID     7               24.       0.      0.
GRID     8               28.       0.      0.
GRID     9               32.       0.      0.
GRID    10               36.       0.      0.
GRID    11               40.       0.      0.
GRID    12               44.       0.      0.
GRID    13               48.       0.      0.
GRID    14               52.       0.      0.
GRID    15               56.       0.      0.
GRID    16               60.       0.      0.
GRID    17               64.       0.      0.
GRID    18               68.       0.      0.
GRID    19               72.       0.      0.
GRID    20               76.       0.      0.
GRID    21               80.       0.      0.
GRID    26               0.        0.      0.
$GRID    27               60.       0.      0.
$ Loads for Load Case : Default
SPCADD   2       1
$ Displacement Constraints of Load Set : spc1.1
SPC1     1       123456  1
$ Referenced Coordinate Frames
ENDDATA 7373b16c
