$     DEFINE GRID POINTS
GRID           1              0.      0.      0.
GRID          21             0.5      0.      0.
GRID          22              1.      0.      0.
GRID          31            -0.5      0.      0.
GRID          32             -1.      0.      0.
$
$ SPC          100       1    1246
$
$     DEFINE CBAR ELEMENTS
CBAR           1     101       1      21      0.      1.      0.
CBAR           2     101      21      22      0.      1.      0.
CBAR           3     101       1      31      0.      1.      0.
CBAR           4     101      31      32      0.      1.      0.
$
$      DEFINE CBAR ELEMENT CROSS SECTIONAL PROPERTIES
PBAR         101     201      .5      1.    .001      1.
$
$      DEFINE MATERIAL PROPERTIES
MAT1         201    1.E6              .3
CONM2         11       1          0.50E3                                +
+           100.           1.E-8                   1.E-8
CONM2         12      22          0.25E3                                +
+           100.           1.E-8                   1.E-8
CONM2         13      32          0.25E3                                +
+           100.           1.E-8                   1.E-8
$
