$     DEFINE GRID POINTS
GRID           1              0.      0.      0.
GRID           2              1.      0.      0.
GRID           3             -1.      0.      0.
$
SPC          100       1     246
$
$     DEFINE CBAR ELEMENTS
CBAR           1     101       1       2      0.      1.      0.
CBAR           2     101       3       1      0.      1.      0.
$
$      DEFINE CBAR ELEMENT CROSS SECTIONAL PROPERTIES
PBAR         101     201     .05      1.    .001      5.
$
$      DEFINE MATERIAL PROPERTIES
MAT1         201    1.E6              .3
CONM2         11       1          0.50E3                                +
+          1.E-8          0.50E3                   1.E-8 
CONM2         12       2          0.25E3                                +
+            10.           1.E-8                   1.E-8
CONM2         13       3          0.25E3                                +
+            10.           1.E-8                   1.E-8
