$pyNastran: version=msc
$pyNastran: punch=True
$pyNastran: encoding=utf-8
$pyNastran: nnodes=3
$pyNastran: nelements=2
$NODES
GRID           1              0.      0.      0.
GRID           2        .8660254      0.      .5
GRID           3        -.866025      0.     -.5
$ELEMENTS
CBEAM         41      31       1       2      0.      1.      0.
CBEAM         42      31       1       3      0.      1.      0.
$PROPERTIES
PBEAM         31      21     10.      1.      1.             10.
$MATERIALS
MAT1          21    100.              0.
$MASSES
CONM2         11       1              5.
              5.              5.                      5.
CONM2         12       2             2.5
          .00001          .00001                  .00001
CONM2         13       3             2.5
          .00001          .00001                  .00001
