$pyNastran: version=msc
$pyNastran: punch=False
$pyNastran: encoding=ascii
$pyNastran: nnodes=31
$pyNastran: nelements=0
$EXECUTIVE CONTROL DECK
SOL 109
CEND
$CASE CONTROL DECK
TITLE=SailPlane_109 
ECHO=NONE 
SPC=2  
SET 1 = 90040000,90040003,90040006,90040009,90040012,90040015,
90040018,90040021,90040024,90040027,90040030,90040033,90040036,
90040039,90040042,90040045,90040048,90040051,90040054,90040057,
90040060,90040063,90040066
SUBCASE 1 
  SUBTITLE=load1 
$  ANALYSIS = NLTRAN 
  TSTEP = 1 
  DLOAD = 8  
  DISPLACEMENT(SORT1,REAL) = 1
BEGIN BULK 
$PARAM,LGDISP,1 
PARAM,POST,-1
$PARAM,AUTOMSET,YES
$NODES
GRID*           10000001                  3.938289443716           2.793
*         .2307855624531
GRID*           10000002                  4.743204495452        4.161789
*         .1767612998433
GRID*           10000003                  5.548120811299        5.530579
*         .1217427052133
GRID*           10000004                  6.353036899486        6.899368
*          .067163408771
GRID*           10000005                   7.15795327044        8.268158
*        .01263767325886
GRID*           10000006                  7.962868924527        9.636947
*       -.01126041344515
GRID*           10000007                  8.767785907022       11.005737
*       -.03250021831127
GRID*           10000008                  9.572701251994       12.374526
*       -.05309735509601
GRID*           10000009                  10.37761818888       13.743316
*       -.07435467316417
GRID*           10000010                  11.18253396994       15.112105
*       -.09507540430181
GRID*           10000011                  11.98745024271       16.480895
*        -.1157796588868
GRID*           10000012                  12.79236575671       17.849684
*        -.1367461829491
GRID*           10000013                  13.59728203808       19.218474
*        -.1576329016647
GRID*           10000014                  14.40219864049       20.587263
*        -.1784799434345
GRID*           10000015                  15.20711466579       21.956053
*        -.1994088922343
GRID*           10000016                  16.01203088453       23.324842
*        -.2207921694213
GRID*           10000017                  16.81694668529       24.693632
*        -.2414850002889
GRID*           10000018                  17.62186288115       26.062421
*        -.2622984801752
GRID*           10000019                  18.42677938213       27.431211
*        -.2830626299874
GRID*           10000020                  19.23169458893            28.8
*        -.3040172018011
$ ... 2420 like lines cut
$ELEMENTS_WITH_PROPERTIES
PCOMP   10002000                                                        +
+       10020001      .3      0.     YES
CQUAD4  100300001000200010000001100001011000010210000002
CQUAD4  100300011000200010000002100001021000010310000003
CQUAD4  100300021000200010000003100001031000010410000004
CQUAD4  100300031000200010000004100001041000010510000005
CQUAD4  100300041000200010000005100001051000010610000006
CQUAD4  100300051000200010000006100001061000010710000007
CQUAD4  100300061000200010000007100001071000010810000008
CQUAD4  100300071000200010000008100001081000010910000009
CQUAD4  100300081000200010000009100001091000011010000010
CQUAD4  100300091000200010000010100001101000011110000011
CQUAD4  100300101000200010000011100001111000011210000012
CQUAD4  100300111000200010000012100001121000011310000013
CQUAD4  100300121000200010000013100001131000011410000014
CQUAD4  100300131000200010000014100001141000011510000015
CQUAD4  100300141000200010000015100001151000011610000016
CQUAD4  100300151000200010000016100001161000011710000017
CQUAD4  100300161000200010000017100001171000011810000018
CQUAD4  100300171000200010000018100001181000011910000019
CQUAD4  100300181000200010000019100001191000012010000020
CQUAD4  100300191000200010000101100002011000020210000102
$ ... 1442 like lines cut
$MATERIALS
MAT2*           10020001     8975180000.     1848500000.  
*            4287490000.                     1968970000.  2000.
$MASSES
$RIGID ELEMENTS
$ RBE3    10040004        90040003              1.     1231007030210000002+
$ +       10000802
RBE3    10040001        90040000              1.     1231001000110010101+
+       1001020110010301100104011001050110010601100107011001080110010901+
+       1000000110000101100002011000030110000401100005011000060110000701+
+       1000080110000901100701011007020110070301100801011008020110080301+
$+             UM10070301     12310000001      1210000801       3
RBE3    10040004        90040003              1.     1231001000210010102+
+       1001020210010302100104021001050210010602100107021001080210010902+
+       1000000210000102100002021000030210000402100005021000060210000702+
+       1000080210000902
$+             UM10070302     12310000002      1210000802       3
RBE3    10040007        90040006              1.     1231001000310010103+
+       1001020310010303100104031001050310010603100107031001080310010903+
+       1000000310000103100002031000030310000403100005031000060310000703+
+       1000080310000903
$+             UM10070303       110000003       210000803       3
RBE3    10040010        90040009              1.     1231001000410010104+
+       1001020410010304100104041001050410010604100107041001080410010904+
+       1000000410000104100002041000030410000404100005041000060410000704+
+       1000080410000904
$+             UM10070304     12310000004       210000804       3
RBE3    10040013        90040012              1.     1231001000510010105+
+       1001020510010305100104051001050510010605100107051001080510010905+
+       1000000510000105100002051000030510000405100005051000060510000705+
+       1000080510000905
$+             UM10070305     12310000005       210000805       3
RBE3    10040016        90040015              1.     1231001000610010106+
+       1001020610010306100104061001050610010606100107061001080610010906+
+       1000000610000106100002061000030610000406100005061000060610000706+
+       1000080610000906
$+             UM10070306     12310000006       210000806       3
RBE3    10040019        90040018              1.     1231001000710010107+
+       1001020710010307100104071001050710010607100107071001080710010907+
+       1000000710000107100002071000030710000407100005071000060710000707+
+       1000080710000907
$+             UM10070307     12310000007       210000807       3
RBE3    10040022        90040021              1.     1231001000810010108+
+       1001020810010308100104081001050810010608100107081001080810010908+
+       1000000810000108100002081000030810000408100005081000060810000708+
+       1000080810000908
$+             UM10070308     12310000008       210000808       3
RBE3    10040025        90040024              1.     1231001000910010109+
+       1001020910010309100104091001050910010609100107091001080910010909+
+       1000000910000109100002091000030910000409100005091000060910000709+
+       1000080910000909
$+             UM10070309     12310000009       210000809       3
RBE3    10040028        90040027              1.     1231001001010010110+
+       1001021010010310100104101001051010010610100107101001081010010910+
+       1000001010000110100002101000031010000410100005101000061010000710+
+       1000081010000910
$+             UM10070310     12310000010       210000810       3
RBE3    10040031        90040030              1.     1231001001110010111+
+       1001021110010311100104111001051110010611100107111001081110010911+
+       1000001110000111100002111000031110000411100005111000061110000711+
+       1000081110000911
$+             UM10070311     12310000011       210000811       3
RBE3    10040034        90040033              1.     1231001001210010112+
+       1001021210010312100104121001051210010612100107121001081210010912+
+       1000001210000112100002121000031210000412100005121000061210000712+
+       1000081210000912
$+             UM10070312     12310000012       210000812       3
RBE3    10040037        90040036              1.     1231001001310010113+
+       1001021310010313100104131001051310010613100107131001081310010913+
+       1000001310000113100002131000031310000413100005131000061310000713+
+       1000081310000913
$+             UM10070313     12310000013       210000813       3
RBE3    10040040        90040039              1.     1231001001410010114+
+       1001021410010314100104141001051410010614100107141001081410010914+
+       1000001410000114100002141000031410000414100005141000061410000714+
+       1000081410000914
$+             UM10070314     12310000014       210000814       3
RBE3    10040043        90040042              1.     1231001001510010115+
+       1001021510010315100104151001051510010615100107151001081510010915+
+       1000001510000115100002151000031510000415100005151000061510000715+
+       1000081510000915
$+             UM10070315     12310000015       210000815       3
RBE3    10040046        90040045              1.     1231001001610010116+
+       1001021610010316100104161001051610010616100107161001081610010916+
+       1000001610000116100002161000031610000416100005161000061610000716+
+       1000081610000916
$+             UM10070316     12310000016       210000816       3
RBE3    10040049        90040048              1.     1231001001710010117+
+       1001021710010317100104171001051710010617100107171001081710010917+
+       1000001710000117100002171000031710000417100005171000061710000717+
+       1000081710000917
$+             UM10070317     12310000017       210000817       3
RBE3    10040052        90040051              1.     1231001001810010118+
+       1001021810010318100104181001051810010618100107181001081810010918+
+       1000001810000118100002181000031810000418100005181000061810000718+
+       1000081810000918
$+             UM10070318     12310000018       210000818       3
RBE3    10040055        90040054              1.     1231001001910010119+
+       1001021910010319100104191001051910010619100107191001081910010919+
+       1000001910000119100002191000031910000419100005191000061910000719+
+       1000081910000919
$+             UM10070319     12310000019       210000819       3
RBE3    10040058        90040057              1.     1231001002010010120+
+       1001022010010320100104201001052010010620100107201001082010010920+
+       1000002010000120100002201000032010000420100005201000062010000720+
+       1000082010000920100701201007022010070320100801201008022010080320+
$+             UM10070320     12310000020       210000820       3
RBE3    10040061        90040060              1.     1231001002210010122+
+       1001022210010322100104221001052210010622100107221001082210010922+
+       1000002210000122100002221000032210000422100005221000062210000722+
+       1000082210000922$100701221007022210070322100801221008022210080322+
$+             UM10000922     12310000022       210000822       3
RBE3    10040064        90040063              1.     1231001002310010123+
+       1001022310010323100104231001052310010623100107231001082310010923+
+       1000002310000123100002231000032310000423100005231000062310000723+
+       1000082310000923$100701231007022310070323100801231008022310080323+
$+             UM10000923     12310000023       210000823       3
RBE3    10040067        90040066              1.     1231001002410010124+
+       1001022410010324100104241001052410010624100107241001082410010924+
+       1000002410000124100002241000032410000424100005241000062410000724+
+       1000082410000924$100701241007022410070324100801241008022410080324+
GRID*           99940000                  6.2140                   2.793
*       -.20750
GRID*           99940003                6.932                     4.1618
*       -.2285
GRID*           99940006                  7.65                    5.5306
*       -.2495
GRID*           99940009                8.3679                    6.8994
*       -.2699
GRID*           99940012                9.0859                    8.2682
*       -.2908
GRID*           99940015                9.8039                     9.637
*       -.2994
GRID*           99940018                10.5219                  11.0057
*       -.3068
GRID*           99940021                11.2398                  12.3745
*       -.3142
GRID*           99940024                11.9578                  13.7433
*       -.3212
GRID*           99940027                12.6758                  15.1121
*        -.3285
GRID*           99940030                13.3938                  16.4809
*       -.3357
GRID*           99940033                14.1117                  17.8497
*       -.3431
GRID*           99940036                14.8297                  19.2185
*        -.3503
GRID*           99940039                15.5477                  20.5873
*       -.3576
GRID*           99940042                16.2657                  21.956
*       -.365
GRID*           99940045                16.9837                  23.3248
*       -.3724
GRID*           99940048                17.7016                  24.6936
*        -.3795
GRID*           99940051                18.4196                  26.0624
*       -.3868
GRID*           99940054                19.1376                  27.4312
*        -.3939
GRID*           99940057                19.8555                  28.8
*       -.4014
GRID*           99940060                6.2140                   2.0948
*       -.2075
GRID*           99940063                6.2140                   1.397
*       -.2075
GRID*           99940066                6.2140                   0.69825
*       -.2075
$ GRID*           99940069                6.2140                   0.
$ *       -.2075
CBUSH       2000    30019994000090040000                            8001
CBUSH       2001    30019994000390040003                            8001
CBUSH       2002    30019994000690040006                            8001
CBUSH       2003    30019994000990040009                            8001
CBUSH       2004    30019994001290040012                            8001
CBUSH       2005    30019994001590040015                            8001
CBUSH       2006    30019994001890040018                            8001
CBUSH       2007    30019994002190040021                            8001
CBUSH       2008    30019994002490040024                            8001
CBUSH       2009    30019994002790040027                            8001
CBUSH       2010    30019994003090040030                            8001
CBUSH       2011    30019994003390040033                            8001
CBUSH       2012    30019994003690040036                            8001
CBUSH       2013    30019994003990040039                            8001
CBUSH       2014    30019994004290040042                            8001
CBUSH       2015    30019994004590040045                            8001
CBUSH       2016    30019994004890040048                            8001
CBUSH       2017    30019994005190040051                            8001
CBUSH       2018    30019994005490040054                            8001
CBUSH       2019    30019994005790040057                            8001
CBUSH       2020    30019994006090040060                            8001
CBUSH       2021    30019994006390040063                            8001
CBUSH       2022    30019994006690040066                            8001
$CBUSH       2023    30019994006990040069                            8001
CORD2R  8001                 0.0     0.0     0.0     0.0     0.0     1.0+
+            1.0     0.0     1.0
PBUSH   3001    K       1.0+12  1.0+12  1.0+12  1.0+12  1.0+12  1.0+12
SPCADD,2,1
SPC1,1,123456,10010025,10010125,10010225,10010325,10010425,
10010525,10010625,10010725,10010825,10010925,10000025,10000125,
10000225,10000325,10000425,10000525,10000625,10000725,10000825,10000925
$INCLUDE 'wing_loads.bdf'
$RBE2 GRIDS
GRID*           9001                     19.8555                    28.8
*       1.4014
GRID*           9002                     18.8555                    28.8
*       -.4014
$RIGID ELEMENTS
RBE2         10099940057  123456  9001
RBE2         20099940057  123456  9002
$LOADS
FORCE1         299940057    6.+599940057    9001
FORCE1         499940057    2.+599940057    9002
LOAD           3      1.      1.       2      1.       4 
$DLOADS
DLOAD          8      1.      1.       1
TLOAD1         1       3       0    LOAD      10
$TABLES
TABLED1       10  LINEAR  LINEAR
              0.     .05      4.      1.      4.      0.     15.      0.
            ENDT
TSTEP          1   10000  0.0015  
$ NLSTEP         1     15.
$          GENERAL
$            FIXED   10000
